2024_89_CemigReconfigurationCases/1_SEsCemig/MAL08/MAL08SegmentosMT.dss
new line.TR10234211 bus1=BMT6413682B.1.2.3,bus2=BMT6413731B.1.2.3,Phases=3,Linecode=CABA06_3_3,Length=0.034999000,Units=km
new line.TR10234218 bus1=BMT6413731B.1.2.3,bus2=BMT6413780B.1.2.3,Phases=3,Linecode=CABA06_3_3,Length=0.034999000,Units=km
new line.TR10234232 bus1=BMT6413780B.1.2.3,bus2=BMT158430172.1.2.3,Phases=3,Linecode=CABA06_3_3,Length=0.065024000,Units=km
new line.TR10234239 bus1=BMT158430172.1.2.3,bus2=BMT6413843B.1.2.3,Phases=3,Linecode=CABA06_3_3,Length=0.038093000,Units=km
new line.TR10234246 bus1=BMT6413843B.1.2.3,bus2=BMT6413850B.1.2.3,Phases=3,Linecode=CABA06_3_3,Length=0.045558000,Units=km
new line.TR10234253 bus1=BMT6413850B.1.2.3,bus2=BMT6413857B.1.2.3,Phases=3,Linecode=CABA06_3_3,Length=0.045470000,Units=km
new line.TR10234260 bus1=BMT6413857B.1.2.3,bus2=BMT6413864B.1.2.3,Phases=3,Linecode=CABA06_3_3,Length=0.040475000,Units=km
new line.TR10234267 bus1=BMT6413864B.1.2.3,bus2=BMT6413878B.1.2.3,Phases=3,Linecode=CABA06_3_3,Length=0.044704000,Units=km
new line.TR10234274 bus1=BMT6413878B.1.2.3,bus2=BMT6413885B.1.2.3,Phases=3,Linecode=CABA06_3_3,Length=0.044704000,Units=km
new line.TR10234281 bus1=BMT6413885B.1.2.3,bus2=BMT6413899B.1.2.3,Phases=3,Linecode=CABA06_3_3,Length=0.044704000,Units=km
new line.TR10234288 bus1=BMT6413899B.1.2.3,bus2=BMT158430174.1.2.3,Phases=3,Linecode=CABA06_3_3,Length=0.061634000,Units=km
new line.TR10234302 bus1=BMT6413983B.1.2.3,bus2=BMT6413990B.1.2.3,Phases=3,Linecode=CABA06_3_3,Length=0.045271000,Units=km
new line.TR10234309 bus1=BMT6413990B.1.2.3,bus2=BMT6413997B.1.2.3,Phases=3,Linecode=CABA06_3_3,Length=0.039638000,Units=km
new line.TR10234316 bus1=BMT6413997B.1.2.3,bus2=BMT101588678.1.2.3,Phases=3,Linecode=CABA06_3_3,Length=0.044118000,Units=km
new line.TR10234323 bus1=BMT167233626.1.2.3,bus2=BMT6414018B.1.2.3,Phases=3,Linecode=CABA06_3_3,Length=0.056880000,Units=km
new line.TR10234337 bus1=BMT6414018B.1.2.3,bus2=BMT6414046B.1.2.3,Phases=3,Linecode=CABA06_3_3,Length=0.054938000,Units=km
new line.TR10234344 bus1=BMT6414046B.1.2.3,bus2=BMT6414053B.1.2.3,Phases=3,Linecode=CABA06_3_3,Length=0.054398000,Units=km
new line.TR10234351 bus1=BMT6414053B.1.2.3,bus2=BMT6414060B.1.2.3,Phases=3,Linecode=CABA06_3_3,Length=0.040512000,Units=km
new line.TR10234358 bus1=BMT6414060B.1.2.3,bus2=BMT6414067B.1.2.3,Phases=3,Linecode=CABA06_3_3,Length=0.029131000,Units=km
new line.TR10234365 bus1=BMT6414067B.1.2.3,bus2=BMT6414074B.1.2.3,Phases=3,Linecode=CABA06_3_3,Length=0.055102000,Units=km
new line.TR10234372 bus1=BMT6414074B.1.2.3,bus2=BMT6414081B.1.2.3,Phases=3,Linecode=CABA06_3_3,Length=0.049948000,Units=km
new line.TR10234379 bus1=BMT6414081B.1.2.3,bus2=BMT6414088B.1.2.3,Phases=3,Linecode=CABA06_3_3,Length=0.049414000,Units=km
new line.TR10237725 bus1=BMT6419695B.1.2.3,bus2=BMT6419702B.1.2.3,Phases=3,Linecode=CABA06_3_3,Length=0.032997000,Units=km
new line.TR10237732 bus1=BMT6419702B.1.2.3,bus2=BMT161706686.1.2.3,Phases=3,Linecode=CABA06_3_3,Length=0.049222000,Units=km
new line.TR10237739 bus1=BMT161706686.1.2.3,bus2=BMT6419716B.1.2.3,Phases=3,Linecode=CABA06_3_3,Length=0.047441000,Units=km
new line.TR10237746 bus1=BMT6419716B.1.2.3,bus2=BMT6419723B.1.2.3,Phases=3,Linecode=CABA06_3_3,Length=0.041319000,Units=km
new line.TR10237753 bus1=BMT6419723B.1.2.3,bus2=BMT167233628.1.2.3,Phases=3,Linecode=CABA06_3_3,Length=0.046590000,Units=km
new line.TR10237760 bus1=BMT167233628.1.2.3,bus2=BMT6419737B.1.2.3,Phases=3,Linecode=CAB902_4_3,Length=0.044062000,Units=km
new line.TR10237767 bus1=BMT6419737B.1.2.3,bus2=BMT6419751B.1.2.3,Phases=3,Linecode=CAB902_4_3,Length=0.042958000,Units=km
new line.TR10237774 bus1=BMT6419751B.1.2.3,bus2=BMT167233627.1.2.3,Phases=3,Linecode=CAB902_4_3,Length=0.040239000,Units=km
new line.TR10237781 bus1=BMT167233627.1.2.3,bus2=BMT101588692.1.2.3,Phases=3,Linecode=CABA06_3_3,Length=0.032214000,Units=km
new line.TR10237879 bus1=BMT165442112.1,bus2=BMT165442113.1,Phases=1,Linecode=CAB103_3_1,Length=0.025327000,Units=km
new line.TR10237886 bus1=BMT101588692.1.2.3,bus2=BMT6414088B.1.2.3,Phases=3,Linecode=CABA06_3_3,Length=0.106269000,Units=km
new line.TR10243269 bus1=BMT167233636.1.2.3,bus2=BMT2456658B.1.2.3,Phases=3,Linecode=CABA06_3_3,Length=0.029166000,Units=km
new line.TR10243297 bus1=BMT6429460B.1.2.3,bus2=BMT6429474B.1.2.3,Phases=3,Linecode=CABA06_3_3,Length=0.052412000,Units=km
new line.TR10243311 bus1=BMT6429474B.1.2.3,bus2=BMT101588776.1.2.3,Phases=3,Linecode=CABA06_3_3,Length=0.022369000,Units=km
new line.TR10243318 bus1=BMT163759699.3,bus2=BMT3549589B.3,Phases=1,Linecode=CAB102_3_1,Length=0.070793000,Units=km
new line.TR10246888 bus1=BMT6435508B.3,bus2=BMT171452456.3,Phases=1,Linecode=CAB103_3_1,Length=0.049667000,Units=km
new line.TR10246895 bus1=BMT6435515B.3,bus2=BMT6435508B.3,Phases=1,Linecode=CAB103_3_1,Length=0.038303000,Units=km
new line.TR10252334 bus1=BMT167233638.1.2.3,bus2=BMT167233639.1.2.3,Phases=3,Linecode=CABA08_3_3,Length=0.016285000,Units=km
new line.TR10257290 bus1=BMT26734703.1.2.3,bus2=BMT101581839.1.2.3,Phases=3,Linecode=CAB208_3_3,Length=0.035622000,Units=km
new line.TR10257325 bus1=BMT164077022.1.2.3,bus2=BMT2453809B.1.2.3,Phases=3,Linecode=CAB208_3_3,Length=0.048844000,Units=km
new line.TR10257388 bus1=BMT6452392B.1.2.3,bus2=BMT101611113.1.2.3,Phases=3,Linecode=CABA08_3_3,Length=0.031839000,Units=km
new line.TR10257395 bus1=BMT154753492.1.2.3,bus2=BMT3945033D.1.2.3,Phases=3,Linecode=CABA08_3_3,Length=0.031839000,Units=km
new line.TR10257556 bus1=BMT6452602B.1.2.3,bus2=BMT166372716.1.2.3,Phases=3,Linecode=CABA08_3_3,Length=0.034013000,Units=km
new line.TR10257563 bus1=BMT6452602D.1.2.3,bus2=BMT26750383.1.2.3,Phases=3,Linecode=CABA08_3_3,Length=0.034013000,Units=km
new line.TR10257570 bus1=BMT166372716.1.2.3,bus2=BMT166372717.1.2.3,Phases=3,Linecode=CAB208_3_3,Length=0.000501000,Units=km
new line.TR10257577 bus1=BMT166372716.1.2.3,bus2=BMT6452637B.1.2.3,Phases=3,Linecode=CABA08_3_3,Length=0.081153000,Units=km
new line.TR10257584 bus1=BMT26750383.1.2.3,bus2=BMT3948421D.1.2.3,Phases=3,Linecode=CABA08_3_3,Length=0.038602000,Units=km
new line.TR10257598 bus1=BMT6452616B.1.2.3,bus2=BMT6453169B.1.2.3,Phases=3,Linecode=CABA08_3_3,Length=0.060055000,Units=km
new line.TR10257605 bus1=BMT6452623B.1.2.3,bus2=BMT6452616B.1.2.3,Phases=3,Linecode=CABA08_3_3,Length=0.035524000,Units=km
new line.TR10257612 bus1=BMT6452630B.1.2.3,bus2=BMT6452623B.1.2.3,Phases=3,Linecode=CABA08_3_3,Length=0.040819000,Units=km
new line.TR10257619 bus1=BMT6452630D.1.2.3,bus2=BMT3948512B.1.2.3,Phases=3,Linecode=CABA08_3_3,Length=0.031317000,Units=km
new line.TR10257626 bus1=BMT6452637B.1.2.3,bus2=BMT6452630B.1.2.3,Phases=3,Linecode=CABA08_3_3,Length=0.054609000,Units=km
new line.TR10257633 bus1=BMT6452637D.1.2.3,bus2=BMT6452630D.1.2.3,Phases=3,Linecode=CABA08_3_3,Length=0.054609000,Units=km
new line.TR10100644 bus1=BMT6178370C.1.2.3,bus2=BMT3345826B.1.2.3,Phases=3,Linecode=CABA08_3_3,Length=0.039864000,Units=km
new line.TR10100679 bus1=BMT6178636B.1.2.3,bus2=BMT6178643B.1.2.3,Phases=3,Linecode=CABA08_3_3,Length=0.034798000,Units=km
new line.TR10100686 bus1=BMT6178643B.1.2.3,bus2=BMT1424361B.1.2.3,Phases=3,Linecode=CABA08_3_3,Length=0.024707000,Units=km
new line.TR10100693 bus1=BMT6178650B.1.2.3,bus2=BMT6178657B.1.2.3,Phases=3,Linecode=CABA08_3_3,Length=0.032585000,Units=km
new line.TR10100700 bus1=BMT6178657B.1.2.3,bus2=BMT6134963B.1.2.3,Phases=3,Linecode=CABA08_3_3,Length=0.029422000,Units=km
new line.TR10102744 bus1=BMT6182010B.1.2.3,bus2=BMT6182017B.1.2.3,Phases=3,Linecode=CABA08_3_3,Length=0.034218000,Units=km
new line.TR10102751 bus1=BMT6182017B.1.2.3,bus2=BMT6182073B.1.2.3,Phases=3,Linecode=CABA08_3_3,Length=0.019857000,Units=km
new line.TR10102842 bus1=BMT6182073B.1.2.3,bus2=BMT6182101B.1.2.3,Phases=3,Linecode=CABA08_3_3,Length=0.033983000,Units=km
new line.TR10102863 bus1=BMT6182101B.1.2.3,bus2=BMT6182115B.1.2.3,Phases=3,Linecode=CABA08_3_3,Length=0.031156000,Units=km
new line.TR10102877 bus1=BMT6182115B.1.2.3,bus2=BMT6182122B.1.2.3,Phases=3,Linecode=CABA08_3_3,Length=0.031156000,Units=km
new line.TR10102884 bus1=BMT6182122B.1.2.3,bus2=BMT6182129B.1.2.3,Phases=3,Linecode=CABA08_3_3,Length=0.031156000,Units=km
new line.TR10102891 bus1=BMT6182129B.1.2.3,bus2=BMT6182136B.1.2.3,Phases=3,Linecode=CABA08_3_3,Length=0.032570000,Units=km
new line.TR10102898 bus1=BMT6182136B.1.2.3,bus2=BMT165070417.1.2.3,Phases=3,Linecode=CABA08_3_3,Length=0.028664000,Units=km
new line.TR10104935 bus1=BMT6184999B.1.2.3,bus2=BMT6234055B.1.2.3,Phases=3,Linecode=CABA08_3_3,Length=0.022680000,Units=km
new line.TR10105117 bus1=BMT6185188B.1.2.3,bus2=BMT1427805B.1.2.3,Phases=3,Linecode=CABA08_3_3,Length=0.039638000,Units=km
new line.TR10105180 bus1=BMT6185314B.1.2.3,bus2=BMT6188058B.1.2.3,Phases=3,Linecode=CABA08_3_3,Length=0.038289000,Units=km
new line.TR10106741 bus1=BMT6188058B.1.2.3,bus2=BMT3678690B.1.2.3,Phases=3,Linecode=CABA08_3_3,Length=0.050028000,Units=km
new line.TR10106748 bus1=BMT6188065B.1.2.3,bus2=BMT165070423.1.2.3,Phases=3,Linecode=CABA08_3_3,Length=0.037135000,Units=km
new line.TR10108015 bus1=BMT6190284B.1.2.3,bus2=BMT3337412B.1.2.3,Phases=3,Linecode=CABA08_3_3,Length=0.038924000,Units=km
new line.TR10109681 bus1=BMT6193140B.1.2.3,bus2=BMT6193147B.1.2.3,Phases=3,Linecode=CABA08_3_3,Length=0.046589000,Units=km
new line.TR10109688 bus1=BMT6193147B.1.2.3,bus2=BMT6193154B.1.2.3,Phases=3,Linecode=CABA08_3_3,Length=0.032292000,Units=km
new line.TR10109695 bus1=BMT6193154B.1.2.3,bus2=BMT6193161B.1.2.3,Phases=3,Linecode=CABA08_3_3,Length=0.039574000,Units=km
new line.TR10109702 bus1=BMT6193161B.1.2.3,bus2=BMT6193168B.1.2.3,Phases=3,Linecode=CABA08_3_3,Length=0.032997000,Units=km
new line.TR10109709 bus1=BMT6193168B.1.2.3,bus2=BMT6193175B.1.2.3,Phases=3,Linecode=CABA08_3_3,Length=0.037657000,Units=km
new line.TR10109716 bus1=BMT6193175B.1.2.3,bus2=BMT101596924.1.2.3,Phases=3,Linecode=CABA08_3_3,Length=0.040276000,Units=km
new line.TR10112138 bus1=BMT101596924.1.2.3,bus2=BMT101596938.1.2.3,Phases=3,Linecode=CAB107_3_3,Length=0.008548000,Units=km
new line.TR10112187 bus1=BMT6196738B.1.2.3,bus2=BMT16130109.1.2.3,Phases=3,Linecode=CABA08_3_3,Length=0.039372000,Units=km
new line.TR10134734 bus1=BMT6233964B.3,bus2=BMT6233978B.3,Phases=1,Linecode=CAB202_3_1,Length=0.111668000,Units=km
new line.TR10134741 bus1=BMT6233978B.3,bus2=BMT6233985B.3,Phases=1,Linecode=CAB202_3_1,Length=0.105612000,Units=km
new line.TR10134748 bus1=BMT6233985B.3,bus2=BMT165070807.3,Phases=1,Linecode=CAB202_3_1,Length=0.111798000,Units=km
new line.TR10134755 bus1=BMT165070806.3,bus2=BMT6233964B.3,Phases=1,Linecode=CAB202_3_1,Length=0.139656000,Units=km
new line.TR10134762 bus1=BMT6234055B.1.2.3,bus2=BMT1420910B.1.2.3,Phases=3,Linecode=CABA08_3_3,Length=0.024092000,Units=km
new line.TR10135161 bus1=BMT165218436.1.2.3,bus2=BMT165218437.1.2.3,Phases=3,Linecode=CAB203_3_3,Length=0.044961000,Units=km
new line.TR10436826 bus1=BMT1743498B.1.2.3,bus2=BMT6695593B.1.2.3,Phases=3,Linecode=CAB103_3_3,Length=0.038027000,Units=km
new line.TR10436833 bus1=BMT6695593B.1.2.3,bus2=BMT167799889.1.2.3,Phases=3,Linecode=CAB103_3_3,Length=0.025505000,Units=km
new line.TR10800343 bus1=BMT158544999.3,bus2=BMT7057465B.3,Phases=1,Linecode=CAB103_3_1,Length=0.038615000,Units=km
new line.TR10800350 bus1=BMT7057465B.3,bus2=BMT1430248B.3,Phases=1,Linecode=CAB103_3_1,Length=0.034495000,Units=km
new line.TR10825781 bus1=BMT161603540.1,bus2=BMT7077870B.1,Phases=1,Linecode=CAB202_3_1,Length=0.140297000,Units=km
new line.TR10825802 bus1=BMT7077870B.1,bus2=BMT161603541.1,Phases=1,Linecode=CAB202_3_1,Length=0.100056000,Units=km
new line.TR10828028 bus1=BMT101611183.3,bus2=BMT101611197.3,Phases=1,Linecode=CAB003_3_1,Length=0.051874000,Units=km
new line.TR10828035 bus1=BMT101611197.3,bus2=BMT101611204.3,Phases=1,Linecode=CAB003_3_1,Length=0.060899000,Units=km
new line.TR10828553 bus1=BMT101581909.1.2.3,bus2=BMT7080299D.1.2.3,Phases=3,Linecode=CABA08_3_3,Length=0.044401000,Units=km
new line.TR10828560 bus1=BMT7080299D.1.2.3,bus2=BMT6453834B.1.2.3,Phases=3,Linecode=CABA08_3_3,Length=0.014872000,Units=km
new line.TR10828791 bus1=BMT101582224.2,bus2=BMT6452665B.2,Phases=1,Linecode=CAB102_3_1,Length=0.027213000,Units=km
new line.TR10828798 bus1=BMT6452665B.2,bus2=BMT101582231.2,Phases=1,Linecode=CAB102_3_1,Length=0.051419000,Units=km
new line.TR10828805 bus1=BMT101582224.2,bus2=BMT101582217.2,Phases=1,Linecode=CAB102_3_1,Length=0.014148000,Units=km
new line.TR10828812 bus1=BMT101581916.1.2.3,bus2=BMT3927778B.1.2.3,Phases=3,Linecode=CABA08_3_3,Length=0.049262000,Units=km
new line.TR10828826 bus1=BMT6453876B.1.2.3,bus2=BMT101581916.1.2.3,Phases=3,Linecode=CABA08_3_3,Length=0.063347000,Units=km
new line.TR10829358 bus1=BMT101610301.1,bus2=BMT7081384B.1,Phases=1,Linecode=CAB202_3_1,Length=0.067107000,Units=km
new line.TR10829365 bus1=BMT7081384B.1,bus2=BMT7081391B.1,Phases=1,Linecode=CAB202_3_1,Length=0.068501000,Units=km
new line.TR10829372 bus1=BMT7081391B.1,bus2=BMT7081398B.1,Phases=1,Linecode=CAB202_3_1,Length=0.080185000,Units=km
new line.TR10829379 bus1=BMT7081398B.1,bus2=BMT101610315.1,Phases=1,Linecode=CAB202_3_1,Length=0.104690000,Units=km
new line.TR10829575 bus1=BMT101586634.1.2.3,bus2=BMT1423885B.1.2.3,Phases=3,Linecode=CABA06_3_3,Length=0.013044000,Units=km
new line.TR10829582 bus1=BMT1423892B.1.2.3,bus2=BMT131282741.1.2.3,Phases=3,Linecode=CABA06_3_3,Length=0.012374000,Units=km
new line.TR10829589 bus1=BMT131282741.1.2.3,bus2=BMT1423878B.1.2.3,Phases=3,Linecode=CABA06_3_3,Length=0.029080000,Units=km
new line.TR10829617 bus1=BMT131282741.1.2.3,bus2=BMT131282748.1.2.3,Phases=3,Linecode=CABA06_3_3,Length=0.020599000,Units=km
new line.TR10829778 bus1=BMT1848430B.2,bus2=BMT101610399.2,Phases=1,Linecode=CAB202_3_1,Length=0.186145000,Units=km
new line.TR10829785 bus1=BMT101610399.2,bus2=BMT101610406.2,Phases=1,Linecode=CAB202_3_1,Length=0.008948000,Units=km
new line.TR10829792 bus1=BMT101610399.2,bus2=BMT7081832B.2,Phases=1,Linecode=CAB202_3_1,Length=0.073817000,Units=km
new line.TR10829799 bus1=BMT7081832B.2,bus2=BMT7081846B.2,Phases=1,Linecode=CAB202_3_1,Length=0.109218000,Units=km
new line.TR10829806 bus1=BMT7081846B.2,bus2=BMT7081853B.2,Phases=1,Linecode=CAB202_3_1,Length=0.140951000,Units=km
new line.TR10829813 bus1=BMT7081853B.2,bus2=BMT101610413.2,Phases=1,Linecode=CAB202_3_1,Length=0.068494000,Units=km
new line.TR10844541 bus1=BMT3951942C.1.2.3,bus2=BMT163725553.1.2.3,Phases=3,Linecode=CABA08_3_3,Length=0.056323000,Units=km
new line.TR10844548 bus1=BMT101582056.1.2.3,bus2=BMT3952166C.1.2.3,Phases=3,Linecode=CABA08_3_3,Length=0.066507000,Units=km
new line.TR10844632 bus1=BMT3952180C.1.2.3,bus2=BMT3952187C.1.2.3,Phases=3,Linecode=CABA08_3_3,Length=0.064405000,Units=km
new line.TR10844702 bus1=BMT3952243C.1.2.3,bus2=BMT3952292C.1.2.3,Phases=3,Linecode=CABA08_3_3,Length=0.042063000,Units=km
new line.TR10844723 bus1=BMT3952292C.1.2.3,bus2=BMT3952299C.1.2.3,Phases=3,Linecode=CABA08_3_3,Length=0.041052000,Units=km
new line.TR10844730 bus1=BMT3952299C.1.2.3,bus2=BMT3952306C.1.2.3,Phases=3,Linecode=CABA08_3_3,Length=0.051884000,Units=km
new line.TR10844737 bus1=BMT3952306C.1.2.3,bus2=BMT3952313C.1.2.3,Phases=3,Linecode=CABA08_3_3,Length=0.050347000,Units=km
new line.TR10844863 bus1=BMT3952348C.1.2.3,bus2=BMT3952355C.1.2.3,Phases=3,Linecode=CABA08_3_3,Length=0.052450000,Units=km
new line.TR10844870 bus1=BMT3952355C.1.2.3,bus2=BMT3952362C.1.2.3,Phases=3,Linecode=CABA08_3_3,Length=0.047525000,Units=km
new line.TR10844877 bus1=BMT3952362C.1.2.3,bus2=BMT3952369C.1.2.3,Phases=3,Linecode=CABA08_3_3,Length=0.061796000,Units=km
new line.TR10844905 bus1=BMT3952369C.1.2.3,bus2=BMT3952376C.1.2.3,Phases=3,Linecode=CABA08_3_3,Length=0.042736000,Units=km
new line.TR10844968 bus1=BMT162372251.1.2.3,bus2=BMT7096532C.1.2.3,Phases=3,Linecode=CABA08_3_3,Length=0.052859000,Units=km
new line.TR10844989 bus1=BMT7096532C.1.2.3,bus2=BMT3952418C.1.2.3,Phases=3,Linecode=CABA08_3_3,Length=0.058843000,Units=km
new line.TR10844996 bus1=BMT3952418C.1.2.3,bus2=BMT6463984C.1.2.3,Phases=3,Linecode=CABA08_3_3,Length=0.039066000,Units=km
new line.TR10845003 bus1=BMT6463984C.1.2.3,bus2=BMT3761684C.1.2.3,Phases=3,Linecode=CABA08_3_3,Length=0.044961000,Units=km
new line.TR10845472 bus1=BMT3761684C.1.2.3,bus2=BMT162372252.1.2.3,Phases=3,Linecode=CABA08_3_3,Length=0.022812000,Units=km
new line.TR10845521 bus1=BMT162372252.1.2.3,bus2=BMT6535118C.1.2.3,Phases=3,Linecode=CABA08_3_3,Length=0.021940000,Units=km
new line.TR10845563 bus1=BMT6535118C.1.2.3,bus2=BMT6535125C.1.2.3,Phases=3,Linecode=CABA08_3_3,Length=0.044738000,Units=km
new line.TR10845591 bus1=BMT6535125C.1.2.3,bus2=BMT6535167C.1.2.3,Phases=3,Linecode=CABA08_3_3,Length=0.551203000,Units=km
new line.TR11057257 bus1=BMT6587681B.1.2.3,bus2=BMT173089523.1.2.3,Phases=3,Linecode=CABA08_3_3,Length=0.038093000,Units=km
new line.TR11057278 bus1=BMT173089523.1.2.3,bus2=BMT6587674B.1.2.3,Phases=3,Linecode=CABA08_3_3,Length=0.042205000,Units=km
new line.TR11057299 bus1=BMT173089523.1.2.3,bus2=BMT173089525.1.2.3,Phases=3,Linecode=CABA06_3_3,Length=0.021940000,Units=km
new line.TR11057418 bus1=BMT113613488.1.2.3,bus2=BMT6587632B.1.2.3,Phases=3,Linecode=CAB108_3_3,Length=0.079728000,Units=km
new line.TR11057446 bus1=BMT6587618B.1.2.3,bus2=BMT7281297B.1.2.3,Phases=3,Linecode=CAB108_3_3,Length=0.054472000,Units=km
new line.TR11057453 bus1=BMT7281297B.1.2.3,bus2=BMT6587604B.1.2.3,Phases=3,Linecode=CAB108_3_3,Length=0.053057000,Units=km
new line.TR11057698 bus1=BMT6587723D.1.2.3,bus2=BMT6587716B.1.2.3,Phases=3,Linecode=CABA08_3_3,Length=0.055337000,Units=km
new line.TR11057908 bus1=BMT6587737D.1.2.3,bus2=BMT6587730D.1.2.3,Phases=3,Linecode=CABA08_3_3,Length=0.047092000,Units=km
new line.TR11057915 bus1=BMT6587730D.1.2.3,bus2=BMT6587723D.1.2.3,Phases=3,Linecode=CABA08_3_3,Length=0.050018000,Units=km
new line.TR11058027 bus1=BMT6589193B.1.2.3,bus2=BMT6587772B.1.2.3,Phases=3,Linecode=CABA08_3_3,Length=0.043925000,Units=km
new line.TR11058034 bus1=BMT6587772B.1.2.3,bus2=BMT6587765B.1.2.3,Phases=3,Linecode=CABA08_3_3,Length=0.033027000,Units=km
new line.TR11058048 bus1=BMT6587765B.1.2.3,bus2=BMT6589207B.1.2.3,Phases=3,Linecode=CABA08_3_3,Length=0.034683000,Units=km
new line.TR11058055 bus1=BMT6589207B.1.2.3,bus2=BMT6587751B.1.2.3,Phases=3,Linecode=CABA08_3_3,Length=0.055680000,Units=km
new line.TR11058062 bus1=BMT6587751B.1.2.3,bus2=BMT6587744B.1.2.3,Phases=3,Linecode=CABA08_3_3,Length=0.063929000,Units=km
new line.TR11058076 bus1=BMT6587744B.1.2.3,bus2=BMT6587737B.1.2.3,Phases=3,Linecode=CABA08_3_3,Length=0.056110000,Units=km
new line.TR11058083 bus1=BMT6587737B.1.2.3,bus2=BMT6587730B.1.2.3,Phases=3,Linecode=CABA08_3_3,Length=0.047092000,Units=km
new line.TR11058090 bus1=BMT6587730B.1.2.3,bus2=BMT6587723B.1.2.3,Phases=3,Linecode=CABA08_3_3,Length=0.050018000,Units=km
new line.TR11058104 bus1=BMT6587723B.1.2.3,bus2=BMT6589214B.1.2.3,Phases=3,Linecode=CABA08_3_3,Length=0.024748000,Units=km
new line.TR11058125 bus1=BMT6589214B.1.2.3,bus2=BMT6589221B.1.2.3,Phases=3,Linecode=CABA08_3_3,Length=0.014323000,Units=km
new line.TR11058132 bus1=BMT6589221B.1.2.3,bus2=BMT6589228B.1.2.3,Phases=3,Linecode=CABA08_3_3,Length=0.010054000,Units=km
new line.TR11058139 bus1=BMT6589228B.1.2.3,bus2=BMT6589235B.1.2.3,Phases=3,Linecode=CABA08_3_3,Length=0.009059000,Units=km
new line.TR11058146 bus1=BMT6589235B.1.2.3,bus2=BMT6589242B.1.2.3,Phases=3,Linecode=CABA08_3_3,Length=0.017269000,Units=km
new line.TR11058265 bus1=BMT6587464C.1.2.3,bus2=BMT153767501.1.2.3,Phases=3,Linecode=CABA08_3_3,Length=0.055482000,Units=km
new line.TR11058272 bus1=BMT153767501.1.2.3,bus2=BMT6587471B.1.2.3,Phases=3,Linecode=CABA08_3_3,Length=0.065819000,Units=km
new line.TR11058279 bus1=BMT6587471B.1.2.3,bus2=BMT6589193B.1.2.3,Phases=3,Linecode=CABA08_3_3,Length=0.057796000,Units=km
new line.TR11058293 bus1=BMT6588969B.1.2.3,bus2=BMT6587464D.1.2.3,Phases=3,Linecode=CABA08_3_3,Length=0.012211000,Units=km
new line.TR11058342 bus1=BMT6587534B.1.2.3,bus2=BMT6587527B.1.2.3,Phases=3,Linecode=CABA08_3_3,Length=0.040276000,Units=km
new line.TR11058349 bus1=BMT6587527B.1.2.3,bus2=BMT6587513B.1.2.3,Phases=3,Linecode=CABA08_3_3,Length=0.071447000,Units=km
new line.TR11058356 bus1=BMT6587513B.1.2.3,bus2=BMT6587506B.1.2.3,Phases=3,Linecode=CABA08_3_3,Length=0.017727000,Units=km
new line.TR11058363 bus1=BMT6587506B.1.2.3,bus2=BMT6587499B.1.2.3,Phases=3,Linecode=CABA08_3_3,Length=0.040065000,Units=km
new line.TR11058370 bus1=BMT6587499B.1.2.3,bus2=BMT162372253.1.2.3,Phases=3,Linecode=CABA08_3_3,Length=0.029422000,Units=km
new line.TR11058433 bus1=BMT154980257.1.2.3,bus2=BMT70733098.1.2.3,Phases=3,Linecode=CABA08_3_3,Length=0.022812000,Units=km
new line.TR11058440 bus1=BMT70733098.1.2.3,bus2=BMT101609860.1.2.3,Phases=3,Linecode=CABA08_3_3,Length=0.048028000,Units=km
new line.TR11058454 bus1=BMT159893364.1.2.3,bus2=BMT159893365.1.2.3,Phases=3,Linecode=CABA08_3_3,Length=0.598433000,Units=km
new line.TR11058489 bus1=BMT6587499D.1.2.3,bus2=BMT6588962B.1.2.3,Phases=3,Linecode=CABA08_3_3,Length=0.021103000,Units=km
new line.TR11058496 bus1=BMT159893365.1.2.3,bus2=BMT159893366.1.2.3,Phases=3,Linecode=CAB108_3_3,Length=0.382007000,Units=km
new line.TR11058510 bus1=BMT162372252.1.2.3,bus2=BMT162372254.1.2.3,Phases=3,Linecode=CABA08_3_3,Length=0.000501000,Units=km
new line.TR11058699 bus1=BMT165070583.3,bus2=BMT1314244B.3,Phases=1,Linecode=CABA06_3_1,Length=0.020526000,Units=km
new line.TR11058706 bus1=BMT1314244B.3,bus2=BMT165070592.3,Phases=1,Linecode=CABA06_3_1,Length=0.026917000,Units=km
new line.TR11059448 bus1=BMT159893365.1.2.3,bus2=BMT6587457D.1.2.3,Phases=3,Linecode=CABA08_3_3,Length=0.025089000,Units=km
new line.TR11059455 bus1=BMT6587457D.1.2.3,bus2=BMT6587534D.1.2.3,Phases=3,Linecode=CABA08_3_3,Length=0.076185000,Units=km
new line.TR11059462 bus1=BMT6535167C.1.2.3,bus2=BMT6587457B.1.2.3,Phases=3,Linecode=CABA08_3_3,Length=0.039638000,Units=km
new line.TR11059469 bus1=BMT6587457B.1.2.3,bus2=BMT6587534B.1.2.3,Phases=3,Linecode=CABA08_3_3,Length=0.076185000,Units=km
new line.TR11059476 bus1=BMT6587534D.1.2.3,bus2=BMT6587527D.1.2.3,Phases=3,Linecode=CABA08_3_3,Length=0.040276000,Units=km
new line.TR11059483 bus1=BMT6587527D.1.2.3,bus2=BMT6587513D.1.2.3,Phases=3,Linecode=CABA08_3_3,Length=0.071447000,Units=km
new line.TR11059490 bus1=BMT6587513D.1.2.3,bus2=BMT6587506D.1.2.3,Phases=3,Linecode=CABA08_3_3,Length=0.017727000,Units=km
new line.TR11059497 bus1=BMT6587506D.1.2.3,bus2=BMT6587499D.1.2.3,Phases=3,Linecode=CABA08_3_3,Length=0.040065000,Units=km
new line.TR11066224 bus1=BMT3952418B.1.2.3,bus2=BMT149491143.1.2.3,Phases=3,Linecode=CABA08_3_3,Length=0.045503000,Units=km
new line.TR11066231 bus1=BMT3952376C.1.2.3,bus2=BMT7289326C.1.2.3,Phases=3,Linecode=CABA08_3_3,Length=0.044614000,Units=km
new line.TR11066238 bus1=BMT7289326C.1.2.3,bus2=BMT101582063.1.2.3,Phases=3,Linecode=CABA08_3_3,Length=0.048936000,Units=km
new line.TR11066616 bus1=BMT3952362E.1.2.3,bus2=BMT3952369E.1.2.3,Phases=3,Linecode=CABA08_3_3,Length=0.061796000,Units=km
new line.TR11066623 bus1=BMT3952369E.1.2.3,bus2=BMT3952376B.1.2.3,Phases=3,Linecode=CABA08_3_3,Length=0.042736000,Units=km
new line.TR11066686 bus1=BMT3952355E.1.2.3,bus2=BMT3952362E.1.2.3,Phases=3,Linecode=CABA08_3_3,Length=0.047525000,Units=km
new line.TR11066805 bus1=BMT3952348E.1.2.3,bus2=BMT3952355E.1.2.3,Phases=3,Linecode=CABA08_3_3,Length=0.052450000,Units=km
new line.TR11066889 bus1=BMT3952334D.1.2.3,bus2=BMT3952341D.1.2.3,Phases=3,Linecode=CABA08_3_3,Length=0.049757000,Units=km
new line.TR11066896 bus1=BMT3952341D.1.2.3,bus2=BMT3952348E.1.2.3,Phases=3,Linecode=CABA08_3_3,Length=0.050228000,Units=km
new line.TR11066917 bus1=BMT3952334B.1.2.3,bus2=BMT3952341B.1.2.3,Phases=3,Linecode=CABA08_3_3,Length=0.049757000,Units=km
new line.TR11066924 bus1=BMT3952341B.1.2.3,bus2=BMT3952348C.1.2.3,Phases=3,Linecode=CABA08_3_3,Length=0.050228000,Units=km
new line.TR11066966 bus1=BMT3952320E.1.2.3,bus2=BMT3952327D.1.2.3,Phases=3,Linecode=CABA08_3_3,Length=0.052821000,Units=km
new line.TR11066973 bus1=BMT3952327D.1.2.3,bus2=BMT3952334D.1.2.3,Phases=3,Linecode=CABA08_3_3,Length=0.046546000,Units=km
new line.TR11066987 bus1=BMT3952313C.1.2.3,bus2=BMT3952320C.1.2.3,Phases=3,Linecode=CABA08_3_3,Length=0.050950000,Units=km
new line.TR11067001 bus1=BMT3952320C.1.2.3,bus2=BMT3952327B.1.2.3,Phases=3,Linecode=CABA08_3_3,Length=0.052821000,Units=km
new line.TR11067008 bus1=BMT3952327B.1.2.3,bus2=BMT3952334B.1.2.3,Phases=3,Linecode=CABA08_3_3,Length=0.046546000,Units=km
new line.TR11067183 bus1=BMT3952306E.1.2.3,bus2=BMT3952313E.1.2.3,Phases=3,Linecode=CABA08_3_3,Length=0.050347000,Units=km
...
