2024_89_CemigReconfigurationCases/1_SEsCemig/MAL08/MAL08ChavesMT.dss
new line.CTR13063 bus1=BMT158344690.2,bus2=BMT101589875.2,Phases=1,LineCode=tieSwitch1,Length=0.001,Units=km,switch=T !numEQ 128634
new line.CTR144761 bus1=BMT101586760.1,bus2=BMT101587950.1,Phases=1,LineCode=tieSwitch1,Length=0.001,Units=km,switch=T !numEQ 64420
new line.CTR144817 bus1=BMT101587110.1,bus2=BMT169215961.1,Phases=1,LineCode=tieSwitch1,Length=0.001,Units=km,switch=T !numEQ 63016
new line.CTR144873 bus1=BMT101586802.1.2.3,bus2=BMT101587964.1.2.3,Phases=3,LineCode=tieSwitch,Length=0.001,Units=km,switch=T !numEQ 64423
new line.CTR144901 bus1=BMT101588097.1,bus2=BMT101588111.1,Phases=1,LineCode=tieSwitch1,Length=0.001,Units=km,switch=T !numEQ 63448
new line.CTR144929 bus1=BMT101596441.1.2.3,bus2=BMT158369208.1.2.3,Phases=3,LineCode=tieSwitch,Length=0.001,Units=km,switch=T !numEQ 62809
new line.CTR144957 bus1=BMT165071037.2,bus2=BMT165071048.2,Phases=1,LineCode=tieSwitch1,Length=0.001,Units=km,switch=T !numEQ 64393
new line.CTR144985 bus1=BMT163588597.1.2.3,bus2=BMT101596476.1.2.3,Phases=3,LineCode=tieSwitch,Length=0.001,Units=km,switch=T !numEQ 62379
new line.CTR145027 bus1=BMT165070714.1,bus2=BMT165070745.1,Phases=1,LineCode=tieSwitch1,Length=0.001,Units=km,switch=T !numEQ 64471
new line.CTR145069 bus1=BMT165070579.1.2.3,bus2=BMT165070619.1.2.3,Phases=3,LineCode=tieSwitch,Length=0.001,Units=km,switch=T !numEQ 64220
new line.CTR145251 bus1=BMT101591716.2,bus2=BMT101592080.2,Phases=1,LineCode=tieSwitch1,Length=0.001,Units=km,switch=T !numEQ 64358
new line.CTR145265 bus1=BMT169680719.3,bus2=BMT101591744.3,Phases=1,LineCode=tieSwitch1,Length=0.001,Units=km,switch=T !numEQ 13403
new line.CTR145293 bus1=BMT101591807.2,bus2=BMT150512210.2,Phases=1,LineCode=tieSwitch1,Length=0.001,Units=km,switch=T !numEQ 64397
new line.CTR145321 bus1=BMT101592640.1,bus2=BMT150264186.1,Phases=1,LineCode=tieSwitch1,Length=0.001,Units=km,switch=T !numEQ 64485
new line.CTR145349 bus1=BMT101596525.1.2.3,bus2=BMT169191764.1.2.3,Phases=3,LineCode=tieSwitch,Length=0.001,Units=km,switch=T !numEQ 64092
new line.CTR145433 bus1=BMT101607529.1.2.3,bus2=BMT101608026.1.2.3,Phases=3,LineCode=tieSwitch,Length=0.001,Units=km,switch=T !numEQ 64492
new line.CTR174973 bus1=BMT101598849.1.2.3,bus2=BMT101598940.1.2.3,Phases=3,LineCode=tieSwitch,Length=0.001,Units=km,switch=T !numEQ 65009
new line.CTR18873 bus1=BMT158544866.1.2.3,bus2=BMT101609755.1.2.3,Phases=3,LineCode=tieSwitch,Length=0.001,Units=km,switch=T !numEQ 148741
open line.CTR18873 term=1
new line.CTR188791 bus1=BMT101588181.1,bus2=BMT101588188.1,Phases=1,LineCode=tieSwitch1,Length=0.001,Units=km,switch=T !numEQ 149834
new line.CTR18901 bus1=BMT101609769.1.2.3,bus2=BMT163725373.1.2.3,Phases=3,LineCode=tieSwitch,Length=0.001,Units=km,switch=T !numEQ 148744
new line.CTR200985 bus1=BMT101599164.3,bus2=BMT101599507.3,Phases=1,LineCode=tieSwitch1,Length=0.001,Units=km,switch=T !numEQ 148374
new line.CTR201181 bus1=BMT101611057.1,bus2=BMT121973077.1,Phases=1,LineCode=tieSwitch1,Length=0.001,Units=km,switch=T !numEQ 63789
new line.CTR201209 bus1=BMT101609608.2,bus2=BMT101610721.2,Phases=1,LineCode=tieSwitch1,Length=0.001,Units=km,switch=T !numEQ 65065
new line.CTR201454 bus1=BMT101611281.1,bus2=BMT101611834.1,Phases=1,LineCode=tieSwitch1,Length=0.001,Units=km,switch=T !numEQ 64430
new line.CTR201468 bus1=BMT101611330.2,bus2=BMT101611771.2,Phases=1,LineCode=tieSwitch1,Length=0.001,Units=km,switch=T !numEQ 148728
new line.CTR201482 bus1=BMT101611365.3,bus2=BMT101611729.3,Phases=1,LineCode=tieSwitch1,Length=0.001,Units=km,switch=T !numEQ 64431
new line.CTR20175 bus1=BMT135713636.1.2.3,bus2=BMT135730618.1.2.3,Phases=3,LineCode=tieSwitch,Length=0.001,Units=km,switch=T !numEQ 135545
new line.CTR20203 bus1=BMT101598499.2,bus2=BMT101598520.2,Phases=1,LineCode=tieSwitch1,Length=0.001,Units=km,switch=T !numEQ 135546
new line.CTR202427 bus1=BMT101588076.1,bus2=BMT101588622.1,Phases=1,LineCode=tieSwitch1,Length=0.001,Units=km,switch=T !numEQ 63945
new line.CTR20329 bus1=BMT172703657.1.2.3,bus2=BMT101596539.1.2.3,Phases=3,LineCode=tieSwitch,Length=0.001,Units=km,switch=T !numEQ 11194
new line.CTR219143 bus1=BMT101602559.1.2.3,bus2=BMT168447916.1.2.3,Phases=3,LineCode=tieSwitch,Length=0.001,Units=km,switch=T !numEQ 64022
new line.CTR234557 bus1=BMT101604386.2,bus2=BMT101604442.2,Phases=1,LineCode=tieSwitch1,Length=0.001,Units=km,switch=T !numEQ 64520
new line.CTR234571 bus1=BMT101605583.2,bus2=BMT101605597.2,Phases=1,LineCode=tieSwitch1,Length=0.001,Units=km,switch=T !numEQ 64504
new line.CTR234599 bus1=BMT101606045.3,bus2=BMT101606052.3,Phases=1,LineCode=tieSwitch1,Length=0.001,Units=km,switch=T !numEQ 63231
new line.CTR234641 bus1=BMT101597932.1.2.3,bus2=BMT167756467.1.2.3,Phases=3,LineCode=tieSwitch,Length=0.001,Units=km,switch=T !numEQ 225826
new line.CTR234711 bus1=BMT101602601.1.2.3,bus2=BMT167656934.1.2.3,Phases=3,LineCode=tieSwitch,Length=0.001,Units=km,switch=T !numEQ 204022
new line.CTR234760 bus1=BMT101602734.1.2.3,bus2=BMT101605506.1.2.3,Phases=3,LineCode=tieSwitch,Length=0.001,Units=km,switch=T !numEQ 63210
new line.CTR234774 bus1=BMT101602790.2,bus2=BMT101605366.2,Phases=1,LineCode=tieSwitch1,Length=0.001,Units=km,switch=T !numEQ 64507
new line.CTR234788 bus1=BMT101602818.1.2.3,bus2=BMT159892848.1.2.3,Phases=3,LineCode=tieSwitch,Length=0.001,Units=km,switch=T !numEQ 307032
new line.CTR234802 bus1=BMT101602916.1.2.3,bus2=BMT163763385.1.2.3,Phases=3,LineCode=tieSwitch,Length=0.001,Units=km,switch=T !numEQ 63358
new line.CTR234816 bus1=BMT101605100.1,bus2=BMT156534860.1,Phases=1,LineCode=tieSwitch1,Length=0.001,Units=km,switch=T !numEQ 148256
new line.CTR234844 bus1=BMT150726088.1.2.3,bus2=BMT162665981.1.2.3,Phases=3,LineCode=tieSwitch,Length=0.001,Units=km,switch=T !numEQ 62780
new line.CTR234907 bus1=BMT101601222.2,bus2=BMT101601229.2,Phases=1,LineCode=tieSwitch1,Length=0.001,Units=km,switch=T !numEQ 64080
new line.CTR234935 bus1=BMT101590008.2,bus2=BMT101590358.2,Phases=1,LineCode=tieSwitch1,Length=0.001,Units=km,switch=T !numEQ 63250
new line.CTR234963 bus1=BMT101590211.2,bus2=BMT101590281.2,Phases=1,LineCode=tieSwitch1,Length=0.001,Units=km,switch=T !numEQ 64077
new line.CTR234977 bus1=BMT101590288.2,bus2=BMT101590302.2,Phases=1,LineCode=tieSwitch1,Length=0.001,Units=km,switch=T !numEQ 64076
new line.CTR234991 bus1=BMT101589728.2,bus2=BMT172810128.2,Phases=1,LineCode=tieSwitch1,Length=0.001,Units=km,switch=T !numEQ 302057
new line.CTR235019 bus1=BMT101597022.1.2.3,bus2=BMT101597071.1.2.3,Phases=3,LineCode=tieSwitch,Length=0.001,Units=km,switch=T !numEQ 111906
new line.CTR235061 bus1=BMT101606675.1.2.3,bus2=BMT101606773.1.2.3,Phases=3,LineCode=tieSwitch,Length=0.001,Units=km,switch=T !numEQ 64386
new line.CTR235103 bus1=BMT161872004.1.2.3,bus2=BMT155670050.1.2.3,Phases=3,LineCode=tieSwitch,Length=0.001,Units=km,switch=T !numEQ 382431
new line.CTR235117 bus1=BMT101598408.2,bus2=BMT156680487.2,Phases=1,LineCode=tieSwitch1,Length=0.001,Units=km,switch=T !numEQ 12770
new line.CTR235131 bus1=BMT101598737.1.2.3,bus2=BMT155106121.1.2.3,Phases=3,LineCode=tieSwitch,Length=0.001,Units=km,switch=T !numEQ 62380
new line.CTR235159 bus1=BMT101598968.1,bus2=BMT101600221.1,Phases=1,LineCode=tieSwitch1,Length=0.001,Units=km,switch=T !numEQ 64068
new line.CTR235173 bus1=BMT101596350.2,bus2=BMT101597764.2,Phases=1,LineCode=tieSwitch1,Length=0.001,Units=km,switch=T !numEQ 194714
new line.CTR235187 bus1=BMT101607263.1.2.3,bus2=BMT156225465.1.2.3,Phases=3,LineCode=tieSwitch,Length=0.001,Units=km,switch=T !numEQ 159238
new line.CTR235201 bus1=BMT101607319.2,bus2=BMT101608467.2,Phases=1,LineCode=tieSwitch1,Length=0.001,Units=km,switch=T !numEQ 99553
new line.CTR235229 bus1=BMT101607368.1.2.3,bus2=BMT101608355.1.2.3,Phases=3,LineCode=tieSwitch,Length=0.001,Units=km,switch=T !numEQ 62484
new line.CTR235243 bus1=BMT101607403.1.2.3,bus2=BMT163823478.1.2.3,Phases=3,LineCode=tieSwitch,Length=0.001,Units=km,switch=T !numEQ 195278
new line.CTR235257 bus1=BMT101607522.3,bus2=BMT101608194.3,Phases=1,LineCode=tieSwitch1,Length=0.001,Units=km,switch=T !numEQ 62927
new line.CTR235271 bus1=BMT101607578.2,bus2=BMT101608005.2,Phases=1,LineCode=tieSwitch1,Length=0.001,Units=km,switch=T !numEQ 64496
new line.CTR235285 bus1=BMT101607585.1.2.3,bus2=BMT161731927.1.2.3,Phases=3,LineCode=tieSwitch,Length=0.001,Units=km,switch=T !numEQ 226084
new line.CTR235299 bus1=BMT101607655.1.2.3,bus2=BMT101607851.1.2.3,Phases=3,LineCode=tieSwitch,Length=0.001,Units=km,switch=T !numEQ 64493
new line.CTR235313 bus1=BMT101596945.1.2.3,bus2=BMT101596966.1.2.3,Phases=3,LineCode=tieSwitch,Length=0.001,Units=km,switch=T !numEQ 64086
new line.CTR235341 bus1=BMT101596574.1.2.3,bus2=BMT101596623.1.2.3,Phases=3,LineCode=tieSwitch,Length=0.001,Units=km,switch=T !numEQ 64387
new line.CTR235355 bus1=BMT101596497.1.2.3,bus2=BMT101596546.1.2.3,Phases=3,LineCode=tieSwitch,Length=0.001,Units=km,switch=T !numEQ 64385
new line.CTR235383 bus1=BMT101597673.1.2.3,bus2=BMT101597715.1.2.3,Phases=3,LineCode=tieSwitch,Length=0.001,Units=km,switch=T !numEQ 64381
new line.CTR235397 bus1=BMT165070412.1.2.3,bus2=BMT5090695.1.2.3,Phases=3,LineCode=tieSwitch,Length=0.001,Units=km,switch=T !numEQ 194713
open line.CTR235397 term=1
new line.CTR235411 bus1=BMT3764489.1.2.3,bus2=BMT169190984.1.2.3,Phases=3,LineCode=tieSwitch,Length=0.001,Units=km,switch=T !numEQ 256454
new line.CTR235425 bus1=BMT165071076.1,bus2=BMT165071081.1,Phases=1,LineCode=tieSwitch1,Length=0.001,Units=km,switch=T !numEQ 64380
new line.CTR235453 bus1=BMT165070560.1.2.3,bus2=BMT165070689.1.2.3,Phases=3,LineCode=tieSwitch,Length=0.001,Units=km,switch=T !numEQ 63841
new line.CTR235481 bus1=BMT165070627.1.2.3,bus2=BMT165070652.1.2.3,Phases=3,LineCode=tieSwitch,Length=0.001,Units=km,switch=T !numEQ 64404
new line.CTR235495 bus1=BMT165070625.1.2.3,bus2=BMT165070640.1.2.3,Phases=3,LineCode=tieSwitch,Length=0.001,Units=km,switch=T !numEQ 64403
new line.CTR235565 bus1=BMT165070454.1.2.3,bus2=BMT165070458.1.2.3,Phases=3,LineCode=tieSwitch,Length=0.001,Units=km,switch=T !numEQ 62913
new line.CTR235586 bus1=BMT101596931.1.2.3,bus2=BMT16130109.1.2.3,Phases=3,LineCode=tieSwitch,Length=0.001,Units=km,switch=T !numEQ 194729
open line.CTR235586 term=1
new line.CTR235621 bus1=BMT101596784.3,bus2=BMT158544998.3,Phases=1,LineCode=tieSwitch1,Length=0.001,Units=km,switch=T !numEQ 384453
new line.CTR235656 bus1=BMT165070518.1.2.3,bus2=BMT171382991.1.2.3,Phases=3,LineCode=tieSwitch,Length=0.001,Units=km,switch=T !numEQ 64964
new line.CTR235712 bus1=BMT165070831.3,bus2=BMT165070833.3,Phases=1,LineCode=tieSwitch1,Length=0.001,Units=km,switch=T !numEQ 64472
new line.CTR235747 bus1=BMT162372254.1.2.3,bus2=BMT70733098.1.2.3,Phases=3,LineCode=tieSwitch,Length=0.001,Units=km,switch=T !numEQ 204034
open line.CTR235747 term=1
new line.CTR235789 bus1=BMT101596420.2,bus2=BMT101597743.2,Phases=1,LineCode=tieSwitch1,Length=0.001,Units=km,switch=T !numEQ 62806
new line.CTR235803 bus1=BMT101596455.1.2.3,bus2=BMT151428131.1.2.3,Phases=3,LineCode=tieSwitch,Length=0.001,Units=km,switch=T !numEQ 62819
new line.CTR235817 bus1=BMT101597582.1.2.3,bus2=BMT101597624.1.2.3,Phases=3,LineCode=tieSwitch,Length=0.001,Units=km,switch=T !numEQ 64384
new line.CTR235831 bus1=BMT165071054.2,bus2=BMT165071057.2,Phases=1,LineCode=tieSwitch1,Length=0.001,Units=km,switch=T !numEQ 64486
new line.CTR235866 bus1=BMT101582567.1.2.3,bus2=BMT160581879.1.2.3,Phases=3,LineCode=tieSwitch,Length=0.001,Units=km,switch=T !numEQ 63916
new line.CTR235894 bus1=BMT101582322.3,bus2=BMT149327559.3,Phases=1,LineCode=tieSwitch1,Length=0.001,Units=km,switch=T !numEQ 62636
new line.CTR235908 bus1=BMT101586368.3,bus2=BMT101586459.3,Phases=1,LineCode=tieSwitch1,Length=0.001,Units=km,switch=T !numEQ 64440
new line.CTR235957 bus1=BMT101588335.1,bus2=BMT149797974.1,Phases=1,LineCode=tieSwitch1,Length=0.001,Units=km,switch=T !numEQ 63949
new line.CTR235971 bus1=BMT101588370.1,bus2=BMT101588503.1,Phases=1,LineCode=tieSwitch1,Length=0.001,Units=km,switch=T !numEQ 63951
new line.CTR236118 bus1=BMT101582889.1.2.3,bus2=BMT101583022.1.2.3,Phases=3,LineCode=tieSwitch,Length=0.001,Units=km,switch=T !numEQ 63918
new line.CTR236132 bus1=BMT101582882.1.2.3,bus2=BMT101584093.1.2.3,Phases=3,LineCode=tieSwitch,Length=0.001,Units=km,switch=T !numEQ 63280
new line.CTR236244 bus1=BMT100814807.1.2.3,bus2=BMT154345031.1.2.3,Phases=3,LineCode=tieSwitch,Length=0.001,Units=km,switch=T !numEQ 64573
new line.CTR236272 bus1=BMT100814842.2,bus2=BMT154346481.2,Phases=1,LineCode=tieSwitch1,Length=0.001,Units=km,switch=T !numEQ 378631
new line.CTR236286 bus1=BMT101581769.1,bus2=BMT166067526.1,Phases=1,LineCode=tieSwitch1,Length=0.001,Units=km,switch=T !numEQ 63795
new line.CTR236328 bus1=BMT101582301.1.2.3,bus2=BMT101586473.1.2.3,Phases=3,LineCode=tieSwitch,Length=0.001,Units=km,switch=T !numEQ 63909
new line.CTR260100 bus1=BMT101602622.1.2.3,bus2=BMT152676205.1.2.3,Phases=3,LineCode=tieSwitch,Length=0.001,Units=km,switch=T !numEQ 63379
new line.CTR277264 bus1=BMT165070479.1.2.3,bus2=BMT165070933.1.2.3,Phases=3,LineCode=tieSwitch,Length=0.001,Units=km,switch=T !numEQ 62438
new line.CTR277817 bus1=BMT101605912.3,bus2=BMT101605933.3,Phases=1,LineCode=tieSwitch1,Length=0.001,Units=km,switch=T !numEQ 63211
new line.CTR328287 bus1=BMT101598394.1,bus2=BMT103963120.1,Phases=1,LineCode=tieSwitch1,Length=0.001,Units=km,switch=T !numEQ 12735
new line.CTR106583 bus1=BMT101602909.1.2.3,bus2=BMT168448087.1.2.3,Phases=3,LineCode=tieSwitch,Length=0.001,Units=km,switch=T !numEQ 196306
new line.CTR181980 bus1=BMT165070509.1,bus2=BMT169992726.1,Phases=1,LineCode=tieSwitch1,Length=0.001,Units=km,switch=T !numEQ 64473
new line.CTR182351 bus1=BMT170869625.2,bus2=BMT170869626.2,Phases=1,LineCode=tieSwitch1,Length=0.001,Units=km,switch=T !numEQ 63224
new line.CTR2038 bus1=BMT169215789.1,bus2=BMT101586900.1,Phases=1,LineCode=tieSwitch1,Length=0.001,Units=km,switch=T !numEQ 205909
new line.CTR204842 bus1=BMT101586585.2,bus2=BMT112961550.2,Phases=1,LineCode=tieSwitch1,Length=0.001,Units=km,switch=T !numEQ 63953
new line.CTR224652 bus1=BMT101603308.2,bus2=BMT159886512.2,Phases=1,LineCode=tieSwitch1,Length=0.001,Units=km,switch=T !numEQ 62053
new line.CTR236356 bus1=BMT101582385.1.2.3,bus2=BMT170970615.1.2.3,Phases=3,LineCode=tieSwitch,Length=0.001,Units=km,switch=T !numEQ 204036
new line.CTR236370 bus1=BMT101582406.1.2.3,bus2=BMT105877137.1.2.3,Phases=3,LineCode=tieSwitch,Length=0.001,Units=km,switch=T !numEQ 99222
new line.CTR236384 bus1=BMT101584205.1.2.3,bus2=BMT149812396.1.2.3,Phases=3,LineCode=tieSwitch,Length=0.001,Units=km,switch=T !numEQ 63159
new line.CTR236552 bus1=BMT101581706.3,bus2=BMT155479727.3,Phases=1,LineCode=tieSwitch1,Length=0.001,Units=km,switch=T !numEQ 63792
new line.CTR237938 bus1=BMT154301079.2,bus2=BMT160068802.2,Phases=1,LineCode=tieSwitch1,Length=0.001,Units=km,switch=T !numEQ 99508
new line.CTR238386 bus1=BMT101588251.1,bus2=BMT157988066.1,Phases=1,LineCode=tieSwitch1,Length=0.001,Units=km,switch=T !numEQ 383993
new line.CTR256026 bus1=BMT101587390.1,bus2=BMT169215939.1,Phases=1,LineCode=tieSwitch1,Length=0.001,Units=km,switch=T !numEQ 62028
new line.CTR256621 bus1=BMT165070699.1.2.3,bus2=BMT166667816.1.2.3,Phases=3,LineCode=tieSwitch,Length=0.001,Units=km,switch=T !numEQ 149211
new line.CTR271545 bus1=BMT101581405.3,bus2=BMT101591380.3,Phases=1,LineCode=tieSwitch1,Length=0.001,Units=km,switch=T !numEQ 63783
new line.CTR271692 bus1=BMT101600984.2,bus2=BMT162006393.2,Phases=1,LineCode=tieSwitch1,Length=0.001,Units=km,switch=T !numEQ 63249
new line.CTR273547 bus1=BMT101606500.1.2.3,bus2=BMT170934753.1.2.3,Phases=3,LineCode=tieSwitch,Length=0.001,Units=km,switch=T !numEQ 64972
new line.CTR295401 bus1=BMT169251688.1.2.3,bus2=BMT101609496.1.2.3,Phases=3,LineCode=tieSwitch,Length=0.001,Units=km,switch=T !numEQ 148727
open line.CTR295401 term=1
new line.CTR297046 bus1=BMT101590372.2,bus2=BMT101590386.2,Phases=1,LineCode=tieSwitch1,Length=0.001,Units=km,switch=T !numEQ 99496
new line.CTR32495 bus1=BMT165070450.1.2.3,bus2=BMT166426341.1.2.3,Phases=3,LineCode=tieSwitch,Length=0.001,Units=km,switch=T !numEQ 177748
new line.CTR327111 bus1=BMT101581818.1.2.3,bus2=BMT170036928.1.2.3,Phases=3,LineCode=tieSwitch,Length=0.001,Units=km,switch=T !numEQ 63796
new line.CTR327167 bus1=BMT101584492.1,bus2=BMT101584961.1,Phases=1,LineCode=tieSwitch1,Length=0.001,Units=km,switch=T !numEQ 64443
new line.CTR327181 bus1=BMT101585010.1,bus2=BMT160037334.1,Phases=1,LineCode=tieSwitch1,Length=0.001,Units=km,switch=T !numEQ 63382
new line.CTR327209 bus1=BMT101582546.1.2.3,bus2=BMT101582581.1.2.3,Phases=3,LineCode=tieSwitch,Length=0.001,Units=km,switch=T !numEQ 63915
new line.CTR327223 bus1=BMT101582973.1.2.3,bus2=BMT150518911.1.2.3,Phases=3,LineCode=tieSwitch,Length=0.001,Units=km,switch=T !numEQ 63921
new line.CTR327237 bus1=BMT101583407.1,bus2=BMT137074527.1,Phases=1,LineCode=tieSwitch1,Length=0.001,Units=km,switch=T !numEQ 10759
new line.CTR327468 bus1=BMT101582945.1.2.3,bus2=BMT101584079.1.2.3,Phases=3,LineCode=tieSwitch,Length=0.001,Units=km,switch=T !numEQ 63919
new line.CTR327482 bus1=BMT101582861.1.2.3,bus2=BMT101583008.1.2.3,Phases=3,LineCode=tieSwitch,Length=0.001,Units=km,switch=T !numEQ 63283
new line.CTR327496 bus1=BMT101582749.2,bus2=BMT101582763.2,Phases=1,LineCode=tieSwitch1,Length=0.001,Units=km,switch=T !numEQ 63449
new line.CTR327510 bus1=BMT101585661.1,bus2=BMT101585787.1,Phases=1,LineCode=tieSwitch1,Length=0.001,Units=km,switch=T !numEQ 62727
new line.CTR327524 bus1=BMT101582259.1.2.3,bus2=BMT167303363.1.2.3,Phases=3,LineCode=tieSwitch,Length=0.001,Units=km,switch=T !numEQ 63798
new line.CTR327538 bus1=BMT101586606.1,bus2=BMT101589385.1,Phases=1,LineCode=tieSwitch1,Length=0.001,Units=km,switch=T !numEQ 64418
new line.CTR327573 bus1=BMT101588349.1,bus2=BMT161603539.1,Phases=1,LineCode=tieSwitch1,Length=0.001,Units=km,switch=T !numEQ 296866
new line.CTR327601 bus1=BMT101588384.1,bus2=BMT101588482.1,Phases=1,LineCode=tieSwitch1,Length=0.001,Units=km,switch=T !numEQ 63952
new line.CTR327615 bus1=BMT101582168.2,bus2=BMT153558542.2,Phases=1,LineCode=tieSwitch1,Length=0.001,Units=km,switch=T !numEQ 63956
new line.CTR327643 bus1=BMT101588874.3,bus2=BMT101589007.3,Phases=1,LineCode=tieSwitch1,Length=0.001,Units=km,switch=T !numEQ 64428
new line.CTR327692 bus1=BMT154711300.1.2.3,bus2=BMT154710665.1.2.3,Phases=3,LineCode=tieSwitch,Length=0.001,Units=km,switch=T !numEQ 62772
open line.CTR327692 term=1
new line.CTR327706 bus1=BMT101597463.1.2.3,bus2=BMT101597470.1.2.3,Phases=3,LineCode=tieSwitch,Length=0.001,Units=km,switch=T !numEQ 63569
new line.CTR327720 bus1=BMT165070428.1,bus2=BMT165071017.1,Phases=1,LineCode=tieSwitch1,Length=0.001,Units=km,switch=T !numEQ 64390
new line.CTR327734 bus1=BMT165070443.1.2.3,bus2=BMT165071013.1.2.3,Phases=3,LineCode=tieSwitch,Length=0.001,Units=km,switch=T !numEQ 11181
new line.CTR327790 bus1=BMT165070478.3,bus2=BMT165070931.3,Phases=1,LineCode=tieSwitch1,Length=0.001,Units=km,switch=T !numEQ 63227
new line.CTR327804 bus1=BMT165070498.1,bus2=BMT165070902.1,Phases=1,LineCode=tieSwitch1,Length=0.001,Units=km,switch=T !numEQ 62877
new line.CTR327832 bus1=BMT165070505.1.2.3,bus2=BMT165070840.1.2.3,Phases=3,LineCode=tieSwitch,Length=0.001,Units=km,switch=T !numEQ 64396
new line.CTR327902 bus1=BMT165070631.1.2.3,bus2=BMT165070643.1.2.3,Phases=3,LineCode=tieSwitch,Length=0.001,Units=km,switch=T !numEQ 64405
new line.CTR327916 bus1=BMT165070623.1.2.3,bus2=BMT165070634.1.2.3,Phases=3,LineCode=tieSwitch,Length=0.001,Units=km,switch=T !numEQ 62855
new line.CTR327930 bus1=BMT165070614.1.2.3,bus2=BMT165070617.1.2.3,Phases=3,LineCode=tieSwitch,Length=0.001,Units=km,switch=T !numEQ 64402
new line.CTR327958 bus1=BMT165070449.1.2.3,bus2=BMT165070456.1.2.3,Phases=3,LineCode=tieSwitch,Length=0.001,Units=km,switch=T !numEQ 62837
new line.CTR327972 bus1=BMT101596987.1.2.3,bus2=BMT101596994.1.2.3,Phases=3,LineCode=tieSwitch,Length=0.001,Units=km,switch=T !numEQ 64087
new line.CTR110923 bus1=BMT151242999.1.2.3,bus2=BMT166352558.1.2.3,Phases=3,LineCode=tieSwitch,Length=0.001,Units=km,switch=T !numEQ 225825
new line.CTR111077 bus1=BMT165070455.1.2.3,bus2=BMT172536635.1.2.3,Phases=3,LineCode=tieSwitch,Length=0.001,Units=km,switch=T !numEQ 106258
new line.CTR122823 bus1=BMT101607256.1,bus2=BMT101608523.1,Phases=1,LineCode=tieSwitch1,Length=0.001,Units=km,switch=T !numEQ 64503
new line.CTR135745 bus1=BMT156260974.1.2.3,bus2=BMT156260975.1.2.3,Phases=3,LineCode=tieSwitch,Length=0.001,Units=km,switch=T !numEQ 104359
new line.CTR148583 bus1=BMT101601145.2,bus2=BMT101601201.2,Phases=1,LineCode=tieSwitch1,Length=0.001,Units=km,switch=T !numEQ 63248
new line.CTR184563 bus1=BMT165070417.1.2.3,bus2=BMT165071034.1.2.3,Phases=3,LineCode=tieSwitch,Length=0.001,Units=km,switch=T !numEQ 194717
new line.CTR185088 bus1=BMT101603245.1,bus2=BMT166114486.1,Phases=1,LineCode=tieSwitch1,Length=0.001,Units=km,switch=T !numEQ 147729
new line.CTR185620 bus1=BMT101609209.1,bus2=BMT148817853.1,Phases=1,LineCode=tieSwitch1,Length=0.001,Units=km,switch=T !numEQ 147769
new line.CTR18565 bus1=BMT169251691.1.2.3,bus2=BMT101609559.1.2.3,Phases=3,LineCode=tieSwitch,Length=0.001,Units=km,switch=T !numEQ 148726
open line.CTR18565 term=1
new line.CTR18593 bus1=BMT101609580.1.2.3,bus2=BMT148810523.1.2.3,Phases=3,LineCode=tieSwitch,Length=0.001,Units=km,switch=T !numEQ 148732
new line.CTR195805 bus1=BMT101600802.2,bus2=BMT4073476.2,Phases=1,LineCode=tieSwitch1,Length=0.001,Units=km,switch=T !numEQ 62013
open line.CTR195805 term=1
new line.CTR195868 bus1=BMT101611372.1,bus2=BMT101611715.1,Phases=1,LineCode=tieSwitch1,Length=0.001,Units=km,switch=T !numEQ 63957
new line.CTR209483 bus1=BMT101604071.2,bus2=BMT101604190.2,Phases=1,LineCode=tieSwitch1,Length=0.001,Units=km,switch=T !numEQ 130891
new line.CTR232359 bus1=BMT165070531.1.2.3,bus2=BMT165070691.1.2.3,Phases=3,LineCode=tieSwitch,Length=0.001,Units=km,switch=T !numEQ 150480
new line.CTR244399 bus1=BMT101586781.1.2.3,bus2=BMT150625267.1.2.3,Phases=3,LineCode=tieSwitch,Length=0.001,Units=km,switch=T !numEQ 64422
new line.CTR24459 bus1=BMT101599094.3,bus2=BMT171452394.3,Phases=1,LineCode=tieSwitch1,Length=0.001,Units=km,switch=T !numEQ 62669
new line.CTR245568 bus1=BMT150631513.1.2.3,bus2=BMT150632473.1.2.3,Phases=3,LineCode=tieSwitch,Length=0.001,Units=km,switch=T !numEQ 107233
new line.CTR267667 bus1=BMT165070578.1.2.3,bus2=BMT165070613.1.2.3,Phases=3,LineCode=tieSwitch,Length=0.001,Units=km,switch=T !numEQ 72856
new line.CTR267723 bus1=BMT165070482.1,bus2=BMT165070489.1,Phases=1,LineCode=tieSwitch1,Length=0.001,Units=km,switch=T !numEQ 64470
new line.CTR289234 bus1=BMT101602755.2,bus2=BMT168777209.2,Phases=1,LineCode=tieSwitch1,Length=0.001,Units=km,switch=T !numEQ 63212
new line.CTR290935 bus1=BMT101599206.3,bus2=BMT101599430.3,Phases=1,LineCode=tieSwitch1,Length=0.001,Units=km,switch=T !numEQ 62476
new line.CTR341020 bus1=BMT101582637.2,bus2=BMT101582679.2,Phases=1,LineCode=tieSwitch1,Length=0.001,Units=km,switch=T !numEQ 99266
new line.CTR417488 bus1=BMT19805725.1.2.3,bus2=BMT165294887.1.2.3,Phases=3,LineCode=tieSwitch,Length=0.001,Units=km,switch=T !numEQ 12710
new line.CTR52375 bus1=BMT101606962.2,bus2=BMT101607067.2,Phases=1,LineCode=tieSwitch1,Length=0.001,Units=km,switch=T !numEQ 64082
new line.CTR52431 bus1=BMT122094373.1.2.3,bus2=BMT163606339.1.2.3,Phases=3,LineCode=tieSwitch,Length=0.001,Units=km,switch=T !numEQ 286171
new line.CTR52459 bus1=BMT101606381.1.2.3,bus2=BMT101606843.1.2.3,Phases=3,LineCode=tieSwitch,Length=0.001,Units=km,switch=T !numEQ 64394
new line.CTR52487 bus1=BMT101601733.1,bus2=BMT101601768.1,Phases=1,LineCode=tieSwitch1,Length=0.001,Units=km,switch=T !numEQ 62019
new line.CTR52529 bus1=BMT101606948.1.2.3,bus2=BMT101607081.1.2.3,Phases=3,LineCode=tieSwitch,Length=0.001,Units=km,switch=T !numEQ 12715
new line.CTR52585 bus1=BMT101607123.1.2.3,bus2=BMT168092981.1.2.3,Phases=3,LineCode=tieSwitch,Length=0.001,Units=km,switch=T !numEQ 257009
new line.CTR526282 bus1=BMT101610385.2,bus2=BMT101610392.2,Phases=1,LineCode=tieSwitch1,Length=0.001,Units=km,switch=T !numEQ 54526
new line.CTR526331 bus1=BMT101607214.1.2.3,bus2=BMT101608866.1.2.3,Phases=3,LineCode=tieSwitch,Length=0.001,Units=km,switch=T !numEQ 63483
new line.CTR52683 bus1=BMT101591695.1.2.3,bus2=BMT169680715.1.2.3,Phases=3,LineCode=tieSwitch,Length=0.001,Units=km,switch=T !numEQ 255181
new line.CTR52711 bus1=BMT101591730.1.2.3,bus2=BMT101591751.1.2.3,Phases=3,LineCode=tieSwitch,Length=0.001,Units=km,switch=T !numEQ 62427
new line.CTR52732 bus1=BMT101591821.1,bus2=BMT101591968.1,Phases=1,LineCode=tieSwitch1,Length=0.001,Units=km,switch=T !numEQ 64398
new line.CTR527430 bus1=BMT101609972.1.2.3,bus2=BMT101610364.1.2.3,Phases=3,LineCode=tieSwitch,Length=0.001,Units=km,switch=T !numEQ 69571
new line.CTR527521 bus1=BMT101596980.1.2.3,bus2=BMT169156377.1.2.3,Phases=3,LineCode=tieSwitch,Length=0.001,Units=km,switch=T !numEQ 111905
new line.CTR52760 bus1=BMT101591989.1,bus2=BMT101592024.1,Phases=1,LineCode=tieSwitch1,Length=0.001,Units=km,switch=T !numEQ 99445
new line.CTR554359 bus1=BMT101601425.2,bus2=BMT153115303.2,Phases=1,LineCode=tieSwitch1,Length=0.001,Units=km,switch=T !numEQ 12742
new line.CTR554429 bus1=BMT101603196.2,bus2=BMT101604260.2,Phases=1,LineCode=tieSwitch1,Length=0.001,Units=km,switch=T !numEQ 62033
new line.CTR554478 bus1=BMT101599584.3,bus2=BMT101599892.3,Phases=1,LineCode=tieSwitch1,Length=0.001,Units=km,switch=T !numEQ 301546
new line.CTR554506 bus1=BMT101599178.3,bus2=BMT101599402.3,Phases=1,LineCode=tieSwitch1,Length=0.001,Units=km,switch=T !numEQ 64703
new line.CTR554555 bus1=BMT101600424.1,bus2=BMT101600494.1,Phases=1,LineCode=tieSwitch1,Length=0.001,Units=km,switch=T !numEQ 149178
new line.CTR554625 bus1=BMT101608733.2,bus2=BMT149874319.2,Phases=1,LineCode=tieSwitch1,Length=0.001,Units=km,switch=T !numEQ 99471
new line.CTR554681 bus1=BMT101608390.1.2.3,bus2=BMT101608432.1.2.3,Phases=3,LineCode=tieSwitch,Length=0.001,Units=km,switch=T !numEQ 99475
new line.CTR554751 bus1=BMT101597890.1.2.3,bus2=BMT101609153.1.2.3,Phases=3,LineCode=tieSwitch,Length=0.001,Units=km,switch=T !numEQ 64357
new line.CTR554779 bus1=BMT101598114.1.2.3,bus2=BMT101609132.1.2.3,Phases=3,LineCode=tieSwitch,Length=0.001,Units=km,switch=T !numEQ 12775
new line.CTR554807 bus1=BMT101606283.1.2.3,bus2=BMT101609118.1.2.3,Phases=3,LineCode=tieSwitch,Length=0.001,Units=km,switch=T !numEQ 63002
new line.CTR554835 bus1=BMT101606325.1.2.3,bus2=BMT101609090.1.2.3,Phases=3,LineCode=tieSwitch,Length=0.001,Units=km,switch=T !numEQ 12781
new line.CTR554905 bus1=BMT101596896.1.2.3,bus2=BMT101596917.1.2.3,Phases=3,LineCode=tieSwitch,Length=0.001,Units=km,switch=T !numEQ 194728
new line.CTR118511 bus1=BMT101608033.3,bus2=BMT101608047.3,Phases=1,LineCode=tieSwitch1,Length=0.001,Units=km,switch=T !numEQ 63245
new line.CTR145461 bus1=BMT101607606.1,bus2=BMT101607914.1,Phases=1,LineCode=tieSwitch1,Length=0.001,Units=km,switch=T !numEQ 64495
new line.CTR145489 bus1=BMT165183336.1.2.3,bus2=BMT165184232.1.2.3,Phases=3,LineCode=tieSwitch,Length=0.001,Units=km,switch=T !numEQ 12789
new line.CTR145601 bus1=BMT101599045.3,bus2=BMT101599073.3,Phases=1,LineCode=tieSwitch1,Length=0.001,Units=km,switch=T !numEQ 63219
new line.CTR145699 bus1=BMT101602461.1.2.3,bus2=BMT101606248.1.2.3,Phases=3,LineCode=tieSwitch,Length=0.001,Units=km,switch=T !numEQ 99482
new line.CTR145727 bus1=BMT101602552.1.2.3,bus2=BMT106645268.1.2.3,Phases=3,LineCode=tieSwitch,Length=0.001,Units=km,switch=T !numEQ 204023
new line.CTR145755 bus1=BMT101602615.1.2.3,bus2=BMT101606143.1.2.3,Phases=3,LineCode=tieSwitch,Length=0.001,Units=km,switch=T !numEQ 204030
new line.CTR145895 bus1=BMT101606185.3,bus2=BMT101606206.3,Phases=1,LineCode=tieSwitch1,Length=0.001,Units=km,switch=T !numEQ 99480
new line.CTR145923 bus1=BMT101598191.1.2.3,bus2=BMT101606262.1.2.3,Phases=3,LineCode=tieSwitch,Length=0.001,Units=km,switch=T !numEQ 99476
new line.CTR145951 bus1=BMT101598023.1.2.3,bus2=BMT101598079.1.2.3,Phases=3,LineCode=tieSwitch,Length=0.001,Units=km,switch=T !numEQ 382426
new line.CTR145979 bus1=BMT101598037.1.2.3,bus2=BMT101598051.1.2.3,Phases=3,LineCode=tieSwitch,Length=0.001,Units=km,switch=T !numEQ 382429
new line.CTR166524 bus1=BMT101601005.2,bus2=BMT101601012.2,Phases=1,LineCode=tieSwitch1,Length=0.001,Units=km,switch=T !numEQ 139937
new line.CTR167056 bus1=BMT165071077.1,bus2=BMT165071079.1,Phases=1,LineCode=tieSwitch1,Length=0.001,Units=km,switch=T !numEQ 147730
new line.CTR183471 bus1=BMT101607158.1,bus2=BMT101608922.1,Phases=1,LineCode=tieSwitch1,Length=0.001,Units=km,switch=T !numEQ 63218
new line.CTR197240 bus1=BMT151025079.1.2.3,bus2=BMT166951410.1.2.3,Phases=3,LineCode=tieSwitch,Length=0.001,Units=km,switch=T !numEQ 149005
new line.CTR222251 bus1=BMT101610693.3,bus2=BMT165527830.3,Phases=1,LineCode=tieSwitch1,Length=0.001,Units=km,switch=T !numEQ 147868
new line.CTR22226 bus1=BMT4719401.1.2.3,bus2=BMT170555086.1.2.3,Phases=3,LineCode=tieSwitch,Length=0.001,Units=km,switch=T !numEQ 149145
new line.CTR239226 bus1=BMT101586851.1,bus2=BMT169215792.1,Phases=1,LineCode=tieSwitch1,Length=0.001,Units=km,switch=T !numEQ 102634
new line.CTR239408 bus1=BMT170753235.1,bus2=BMT101611316.1,Phases=1,LineCode=tieSwitch1,Length=0.001,Units=km,switch=T !numEQ 63254
new line.CTR261255 bus1=BMT165070897.1,bus2=BMT165070898.1,Phases=1,LineCode=tieSwitch1,Length=0.001,Units=km,switch=T !numEQ 136165
new line.CTR317864 bus1=BMT165070470.1.2.3,bus2=BMT170133767.1.2.3,Phases=3,LineCode=tieSwitch,Length=0.001,Units=km,switch=T !numEQ 110332
new line.CTR352220 bus1=BMT101611078.1,bus2=BMT101611911.1,Phases=1,LineCode=tieSwitch1,Length=0.001,Units=km,switch=T !numEQ 63793
new line.CTR51927 bus1=BMT101602958.1.2.3,bus2=BMT152356947.1.2.3,Phases=3,LineCode=tieSwitch,Length=0.001,Units=km,switch=T !numEQ 302059
new line.CTR519422 bus1=BMT101582413.1,bus2=BMT163822571.1,Phases=1,LineCode=tieSwitch1,Length=0.001,Units=km,switch=T !numEQ 226353
new line.CTR52004 bus1=BMT101604463.2,bus2=BMT101604645.2,Phases=1,LineCode=tieSwitch1,Length=0.001,Units=km,switch=T !numEQ 64498
new line.CTR52032 bus1=BMT101604498.2,bus2=BMT163293548.2,Phases=1,LineCode=tieSwitch1,Length=0.001,Units=km,switch=T !numEQ 63257
new line.CTR52053 bus1=BMT101601600.1.2.3,bus2=BMT101601691.1.2.3,Phases=3,LineCode=tieSwitch,Length=0.001,Units=km,switch=T !numEQ 63117
new line.CTR520661 bus1=BMT101609573.1.2.3,bus2=BMT166167124.1.2.3,Phases=3,LineCode=tieSwitch,Length=0.001,Units=km,switch=T !numEQ 148983
new line.CTR520703 bus1=BMT101611022.1.2.3,bus2=BMT166167398.1.2.3,Phases=3,LineCode=tieSwitch,Length=0.001,Units=km,switch=T !numEQ 148982
new line.CTR52081 bus1=BMT101602727.2,bus2=BMT160246017.2,Phases=1,LineCode=tieSwitch1,Length=0.001,Units=km,switch=T !numEQ 62447
new line.CTR52137 bus1=BMT155669932.1.2.3,bus2=BMT155669936.1.2.3,Phases=3,LineCode=tieSwitch,Length=0.001,Units=km,switch=T !numEQ 382430
new line.CTR521459 bus1=BMT165070697.2,bus2=BMT171381470.2,Phases=1,LineCode=tieSwitch1,Length=0.001,Units=km,switch=T !numEQ 151431
new line.CTR521487 bus1=BMT165070712.1.2.3,bus2=BMT165070830.1.2.3,Phases=3,LineCode=tieSwitch,Length=0.001,Units=km,switch=T !numEQ 151421
new line.CTR52193 bus1=BMT101602489.1.2.3,bus2=BMT163796752.1.2.3,Phases=3,LineCode=tieSwitch,Length=0.001,Units=km,switch=T !numEQ 63385
new line.CTR522061 bus1=BMT150632476.1,bus2=BMT171633612.1,Phases=1,LineCode=tieSwitch1,Length=0.001,Units=km,switch=T !numEQ 107234
new line.CTR52207 bus1=BMT101599227.3,bus2=BMT101599241.3,Phases=1,LineCode=tieSwitch1,Length=0.001,Units=km,switch=T !numEQ 63215
new line.CTR52235 bus1=BMT101599255.3,bus2=BMT127205430.3,Phases=1,LineCode=tieSwitch1,Length=0.001,Units=km,switch=T !numEQ 63216
new line.CTR522551 bus1=BMT101596651.1.2.3,bus2=BMT164208729.1.2.3,Phases=3,LineCode=tieSwitch,Length=0.001,Units=km,switch=T !numEQ 64334
new line.CTR52263 bus1=BMT101599437.3,bus2=BMT101599493.3,Phases=1,LineCode=tieSwitch1,Length=0.001,Units=km,switch=T !numEQ 64062
new line.CTR52347 bus1=BMT101600354.1.2.3,bus2=BMT162003829.1.2.3,Phases=3,LineCode=tieSwitch,Length=0.001,Units=km,switch=T !numEQ 12760
new line.CTR562101 bus1=BMT165070564.1.2.3,bus2=BMT165070565.1.2.3,Phases=3,LineCode=tieSwitch,Length=0.001,Units=km,switch=T !numEQ 300181
new line.CTR565517 bus1=BMT101608117.3,bus2=BMT151715228.3,Phases=1,LineCode=tieSwitch1,Length=0.001,Units=km,switch=T !numEQ 62926
new line.CTR606054 bus1=BMT101582987.1.2.3,bus2=BMT165940937.1.2.3,Phases=3,LineCode=tieSwitch,Length=0.001,Units=km,switch=T !numEQ 63920
new line.CTR60985 bus1=BMT101584359.1,bus2=BMT101584975.1,Phases=1,LineCode=tieSwitch1,Length=0.001,Units=km,switch=T !numEQ 64442
new line.CTR645254 bus1=BMT101604022.2,bus2=BMT160135454.2,Phases=1,LineCode=tieSwitch1,Length=0.001,Units=km,switch=T !numEQ 63214
new line.CTR645310 bus1=BMT164065959.1.2.3,bus2=BMT101600466.1.2.3,Phases=3,LineCode=tieSwitch,Length=0.001,Units=km,switch=T !numEQ 130856
new line.CTR645604 bus1=BMT101601243.2,bus2=BMT154301073.2,Phases=1,LineCode=tieSwitch1,Length=0.001,Units=km,switch=T !numEQ 64950
new line.CTR646745 bus1=BMT101581748.3,bus2=BMT101590743.3,Phases=1,LineCode=tieSwitch1,Length=0.001,Units=km,switch=T !numEQ 63794
new line.CTR646787 bus1=BMT165070366.1.2.3,bus2=BMT165070382.1.2.3,Phases=3,LineCode=tieSwitch,Length=0.001,Units=km,switch=T !numEQ 62775
new line.CTR149150 bus1=BMT101582896.1.2.3,bus2=BMT101583036.1.2.3,Phases=3,LineCode=tieSwitch,Length=0.001,Units=km,switch=T !numEQ 124030
new line.CTR149227 bus1=BMT101584030.1,bus2=BMT150577976.1,Phases=1,LineCode=tieSwitch1,Length=0.001,Units=km,switch=T !numEQ 378602
new line.CTR18719 bus1=BMT101609699.1.2.3,bus2=BMT158544863.1.2.3,Phases=3,LineCode=tieSwitch,Length=0.001,Units=km,switch=T !numEQ 148738
new line.CTR18747 bus1=BMT101611218.1.2.3,bus2=BMT161538690.1.2.3,Phases=3,LineCode=tieSwitch,Length=0.001,Units=km,switch=T !numEQ 148740
new line.CTR187475 bus1=BMT101595727.1.2.3,bus2=BMT157996700.1.2.3,Phases=3,LineCode=tieSwitch,Length=0.001,Units=km,switch=T !numEQ 175687
new line.CTR198808 bus1=BMT101591254.1,bus2=BMT166170036.1,Phases=1,LineCode=tieSwitch1,Length=0.001,Units=km,switch=T !numEQ 142573
new line.CTR199039 bus1=BMT101584695.1,bus2=BMT101584919.1,Phases=1,LineCode=tieSwitch1,Length=0.001,Units=km,switch=T !numEQ 147734
new line.CTR199585 bus1=BMT101609503.2,bus2=BMT155731895.2,Phases=1,LineCode=tieSwitch1,Length=0.001,Units=km,switch=T !numEQ 382436
new line.CTR199767 bus1=BMT101588734.2,bus2=BMT166069684.2,Phases=1,LineCode=tieSwitch1,Length=0.001,Units=km,switch=T !numEQ 204010
new line.CTR199886 bus1=BMT161706686.1.2.3,bus2=BMT161706919.1.2.3,Phases=3,LineCode=tieSwitch,Length=0.001,Units=km,switch=T !numEQ 204011
new line.CTR210827 bus1=BMT165070768.1.2.3,bus2=BMT165070788.1.2.3,Phases=3,LineCode=tieSwitch,Length=0.001,Units=km,switch=T !numEQ 134164
new line.CTR211912 bus1=BMT101611162.3,bus2=BMT170239848.3,Phases=1,LineCode=tieSwitch1,Length=0.001,Units=km,switch=T !numEQ 65001
new line.CTR212157 bus1=BMT165070441.1.2.3,bus2=BMT165071015.1.2.3,Phases=3,LineCode=tieSwitch,Length=0.001,Units=km,switch=T !numEQ 136169
new line.CTR229391 bus1=BMT101598443.1.2.3,bus2=BMT153396139.1.2.3,Phases=3,LineCode=tieSwitch,Length=0.001,Units=km,switch=T !numEQ 384280
new line.CTR253597 bus1=BMT101598247.1.2.3,bus2=BMT159233188.1.2.3,Phases=3,LineCode=tieSwitch,Length=0.001,Units=km,switch=T !numEQ 62305
new line.CTR254514 bus1=BMT165070773.3,bus2=BMT165070820.3,Phases=1,LineCode=tieSwitch1,Length=0.001,Units=km,switch=T !numEQ 257070
new line.CTR271370 bus1=BMT165070503.1.2.3,bus2=BMT165070861.1.2.3,Phases=3,LineCode=tieSwitch,Length=0.001,Units=km,switch=T !numEQ 64896
new line.CTR292069 bus1=BMT101599010.1.2.3,bus2=BMT101599990.1.2.3,Phases=3,LineCode=tieSwitch,Length=0.001,Units=km,switch=T !numEQ 65010
new line.CTR292223 bus1=BMT101607627.3,bus2=BMT101607900.3,Phases=1,LineCode=tieSwitch1,Length=0.001,Units=km,switch=T !numEQ 13422
new line.CTR293427 bus1=BMT165070500.1.2.3,bus2=BMT165070883.1.2.3,Phases=3,LineCode=tieSwitch,Length=0.001,Units=km,switch=T !numEQ 106240
new line.CTR3130 bus1=BMT101609832.1.2.3,bus2=BMT149491140.1.2.3,Phases=3,LineCode=tieSwitch,Length=0.001,Units=km,switch=T !numEQ 206689
new line.CTR314028 bus1=BMT153396144.1.2.3,bus2=BMT101598667.1.2.3,Phases=3,LineCode=tieSwitch,Length=0.001,Units=km,switch=T !numEQ 104389
new line.CTR314553 bus1=BMT101606402.1.2.3,bus2=BMT151530012.1.2.3,Phases=3,LineCode=tieSwitch,Length=0.001,Units=km,switch=T !numEQ 63010
new line.CTR315757 bus1=BMT101610826.3,bus2=BMT171913602.3,Phases=1,LineCode=tieSwitch1,Length=0.001,Units=km,switch=T !numEQ 101125
new line.CTR369132 bus1=BMT101581447.1.2.3,bus2=BMT101591030.1.2.3,Phases=3,LineCode=tieSwitch,Length=0.001,Units=km,switch=T !numEQ 215970
new line.CTR369503 bus1=BMT101597050.1.2.3,bus2=BMT150341322.1.2.3,Phases=3,LineCode=tieSwitch,Length=0.001,Units=km,switch=T !numEQ 141439
new line.CTR370133 bus1=BMT101589546.2,bus2=BMT101590673.2,Phases=1,LineCode=tieSwitch1,Length=0.001,Units=km,switch=T !numEQ 147887
new line.CTR370203 bus1=BMT101589651.2,bus2=BMT101590617.2,Phases=1,LineCode=tieSwitch1,Length=0.001,Units=km,switch=T !numEQ 147777
new line.CTR370259 bus1=BMT101592990.2,bus2=BMT159572519.2,Phases=1,LineCode=tieSwitch1,Length=0.001,Units=km,switch=T !numEQ 147731
new line.CTR407037 bus1=BMT165070406.1.2.3,bus2=BMT171939250.1.2.3,Phases=3,LineCode=tieSwitch,Length=0.001,Units=km,switch=T !numEQ 194709
new line.CTR47027 bus1=BMT101582287.1.2.3,bus2=BMT101586508.1.2.3,Phases=3,LineCode=tieSwitch,Length=0.001,Units=km,switch=T !numEQ 63900
new line.CTR516209 bus1=BMT159464509.3,bus2=BMT159464518.3,Phases=1,LineCode=tieSwitch1,Length=0.001,Units=km,switch=T !numEQ 148731
new line.CTR547065 bus1=BMT101599724.3,bus2=BMT160634034.3,Phases=1,LineCode=tieSwitch1,Length=0.001,Units=km,switch=T !numEQ 161547
new line.CTR547429 bus1=BMT101605954.3,bus2=BMT159116293.3,Phases=1,LineCode=tieSwitch1,Length=0.001,Units=km,switch=T !numEQ 249422
new line.CTR593692 bus1=BMT101603210.2,bus2=BMT101604246.2,Phases=1,LineCode=tieSwitch1,Length=0.001,Units=km,switch=T !numEQ 105892
new line.CTR593713 bus1=BMT101599773.3,bus2=BMT101599829.3,Phases=1,LineCode=tieSwitch1,Length=0.001,Units=km,switch=T !numEQ 128990
new line.CTR594350 bus1=BMT101598982.3,bus2=BMT167313112.3,Phases=1,LineCode=tieSwitch1,Length=0.001,Units=km,switch=T !numEQ 101128
new line.CTR59473 bus1=BMT101603392.1.2.3,bus2=BMT101603770.1.2.3,Phases=3,LineCode=tieSwitch,Length=0.001,Units=km,switch=T !numEQ 149544
new line.CTR595386 bus1=BMT170934760.1.2.3,bus2=BMT101606549.1.2.3,Phases=3,LineCode=tieSwitch,Length=0.001,Units=km,switch=T !numEQ 62940
open line.CTR595386 term=1
new line.CTR596548 bus1=BMT165070459.2,bus2=BMT165070464.2,Phases=1,LineCode=tieSwitch1,Length=0.001,Units=km,switch=T !numEQ 134190
new line.CTR596856 bus1=BMT160793659.1,bus2=BMT101592591.1,Phases=1,LineCode=tieSwitch1,Length=0.001,Units=km,switch=T !numEQ 133778
new line.CTR59711 bus1=BMT155106126.1.2.3,bus2=BMT154182808.1.2.3,Phases=3,LineCode=tieSwitch,Length=0.001,Units=km,switch=T !numEQ 64607
new line.CTR633858 bus1=BMT101590764.3,bus2=BMT101590778.3,Phases=1,LineCode=tieSwitch1,Length=0.001,Units=km,switch=T !numEQ 148028
new line.CTR634362 bus1=BMT163219169.1.2.3,bus2=BMT101598121.1.2.3,Phases=3,LineCode=tieSwitch,Length=0.001,Units=km,switch=T !numEQ 225828
new line.CTR637673 bus1=BMT165070571.1.2.3,bus2=BMT165070581.1.2.3,Phases=3,LineCode=tieSwitch,Length=0.001,Units=km,switch=T !numEQ 286090
new line.CTR676201 bus1=BMT101609671.1.2.3,bus2=BMT101609678.1.2.3,Phases=3,LineCode=tieSwitch,Length=0.001,Units=km,switch=T !numEQ 373145
new line.CTR676208 bus1=BMT101611127.1.2.3,bus2=BMT26734703.1.2.3,Phases=3,LineCode=tieSwitch,Length=0.001,Units=km,switch=T !numEQ 202356
open line.CTR676208 term=1
new line.CTR676215 bus1=BMT101609657.1.2.3,bus2=BMT154753492.1.2.3,Phases=3,LineCode=tieSwitch,Length=0.001,Units=km,switch=T !numEQ 202355
new line.CTR138482 bus1=BMT101609860.1.2.3,bus2=BMT159893364.1.2.3,Phases=3,LineCode=tieSwitch,Length=0.001,Units=km,switch=T !numEQ 159918
new line.CTR165299 bus1=BMT101597813.1.2.3,bus2=BMT157926858.1.2.3,Phases=3,LineCode=tieSwitch,Length=0.001,Units=km,switch=T !numEQ 62776
new line.CTR165355 bus1=BMT101597827.1.2.3,bus2=BMT150114265.1.2.3,Phases=3,LineCode=tieSwitch,Length=0.001,Units=km,switch=T !numEQ 62754
new line.CTR179880 bus1=BMT101605527.2,bus2=BMT101605534.2,Phases=1,LineCode=tieSwitch1,Length=0.001,Units=km,switch=T !numEQ 149129
new line.CTR193579 bus1=BMT101598765.1,bus2=BMT127923434.1,Phases=1,LineCode=tieSwitch1,Length=0.001,Units=km,switch=T !numEQ 122787
new line.CTR194489 bus1=BMT101599913.3,bus2=BMT168759347.3,Phases=1,LineCode=tieSwitch1,Length=0.001,Units=km,switch=T !numEQ 139938
new line.CTR228229 bus1=BMT165070936.2,bus2=BMT165070937.2,Phases=1,LineCode=tieSwitch1,Length=0.001,Units=km,switch=T !numEQ 64482
new line.CTR265427 bus1=BMT165070481.1.2.3,bus2=BMT165070908.1.2.3,Phases=3,LineCode=tieSwitch,Length=0.001,Units=km,switch=T !numEQ 307738
new line.CTR276375 bus1=BMT101596644.3,bus2=BMT163892594.3,Phases=1,LineCode=tieSwitch1,Length=0.001,Units=km,switch=T !numEQ 64388
new line.CTR276396 bus1=BMT101596714.1.2.3,bus2=BMT161540144.1.2.3,Phases=3,LineCode=tieSwitch,Length=0.001,Units=km,switch=T !numEQ 194725
new line.CTR300945 bus1=BMT101600914.2,bus2=BMT101601334.2,Phases=1,LineCode=tieSwitch1,Length=0.001,Units=km,switch=T !numEQ 147962
new line.CTR302527 bus1=BMT101582952.1.2.3,bus2=BMT170533348.1.2.3,Phases=3,LineCode=tieSwitch,Length=0.001,Units=km,switch=T !numEQ 124033
new line.CTR303255 bus1=BMT101607340.1.2.3,bus2=BMT168510792.1.2.3,Phases=3,LineCode=tieSwitch,Length=0.001,Units=km,switch=T !numEQ 226083
new line.CTR303311 bus1=BMT101599577.3,bus2=BMT101599962.3,Phases=1,LineCode=tieSwitch1,Length=0.001,Units=km,switch=T !numEQ 64066
new line.CTR333110 bus1=BMT101581825.1.2.3,bus2=BMT166382115.1.2.3,Phases=3,LineCode=tieSwitch,Length=0.001,Units=km,switch=T !numEQ 64426
new line.CTR362328 bus1=BMT101609741.3,bus2=BMT156622762.3,Phases=1,LineCode=tieSwitch1,Length=0.001,Units=km,switch=T !numEQ 148984
new line.CTR365100 bus1=BMT107907774.3,bus2=BMT168448276.3,Phases=1,LineCode=tieSwitch1,Length=0.001,Units=km,switch=T !numEQ 63213
new line.CTR365275 bus1=BMT101581587.1.2.3,bus2=BMT167109086.1.2.3,Phases=3,LineCode=tieSwitch,Length=0.001,Units=km,switch=T !numEQ 63791
new line.CTR42603 bus1=BMT101590505.2,bus2=BMT101590519.2,Phases=1,LineCode=tieSwitch1,Length=0.001,Units=km,switch=T !numEQ 139936
new line.CTR495391 bus1=BMT101598947.1.2.3,bus2=BMT160091029.1.2.3,Phases=3,LineCode=tieSwitch,Length=0.001,Units=km,switch=T !numEQ 193057
new line.CTR496259 bus1=BMT101599115.3,bus2=BMT162806357.3,Phases=1,LineCode=tieSwitch1,Length=0.001,Units=km,switch=T !numEQ 62478
new line.CTR496476 bus1=BMT101597596.1.2.3,bus2=BMT101597603.1.2.3,Phases=3,LineCode=tieSwitch,Length=0.001,Units=km,switch=T !numEQ 147647
new line.CTR496504 bus1=BMT101596700.1.2.3,bus2=BMT101597498.1.2.3,Phases=3,LineCode=tieSwitch,Length=0.001,Units=km,switch=T !numEQ 194724
new line.CTR500312 bus1=BMT162665985.1.2.3,bus2=BMT13137007.1.2.3,Phases=3,LineCode=tieSwitch,Length=0.001,Units=km,switch=T !numEQ 62768
open line.CTR500312 term=1
new line.CTR500319 bus1=BMT154710932.1.2.3,bus2=BMT155045111.1.2.3,Phases=3,LineCode=tieSwitch,Length=0.001,Units=km,switch=T !numEQ 62771
new line.CTR52956 bus1=BMT101596756.1.2.3,bus2=BMT101597442.1.2.3,Phases=3,LineCode=tieSwitch,Length=0.001,Units=km,switch=T !numEQ 64093
new line.CTR52977 bus1=BMT165070451.3,bus2=BMT165070996.3,Phases=1,LineCode=tieSwitch1,Length=0.001,Units=km,switch=T !numEQ 62200
new line.CTR53005 bus1=BMT165070452.1.2.3,bus2=BMT165070989.1.2.3,Phases=3,LineCode=tieSwitch,Length=0.001,Units=km,switch=T !numEQ 63013
new line.CTR53033 bus1=BMT165070476.2,bus2=BMT165070955.2,Phases=1,LineCode=tieSwitch1,Length=0.001,Units=km,switch=T !numEQ 64481
new line.CTR53061 bus1=BMT165070504.1.2.3,bus2=BMT165070854.1.2.3,Phases=3,LineCode=tieSwitch,Length=0.001,Units=km,switch=T !numEQ 314626
new line.CTR53117 bus1=BMT101610525.3,bus2=BMT170354006.3,Phases=1,LineCode=tieSwitch1,Length=0.001,Units=km,switch=T !numEQ 63958
new line.CTR53131 bus1=BMT101591114.1.2.3,bus2=BMT161572012.1.2.3,Phases=3,LineCode=tieSwitch,Length=0.001,Units=km,switch=T !numEQ 285526
new line.CTR53159 bus1=BMT101581398.1,bus2=BMT148205702.1,Phases=1,LineCode=tieSwitch1,Length=0.001,Units=km,switch=T !numEQ 63782
new line.CTR53236 bus1=BMT165070400.1.2.3,bus2=BMT5090632.1.2.3,Phases=3,LineCode=tieSwitch,Length=0.001,Units=km,switch=T !numEQ 194707
open line.CTR53236 term=1
new line.CTR53264 bus1=BMT101596259.1.2.3,bus2=BMT154711297.1.2.3,Phases=3,LineCode=tieSwitch,Length=0.001,Units=km,switch=T !numEQ 62782
new line.CTR532729 bus1=BMT101590932.3,bus2=BMT101590953.3,Phases=1,LineCode=tieSwitch1,Length=0.001,Units=km,switch=T !numEQ 175688
new line.CTR53278 bus1=BMT101586620.1.2.3,bus2=BMT101586648.1.2.3,Phases=3,LineCode=tieSwitch,Length=0.001,Units=km,switch=T !numEQ 204016
new line.CTR53285 bus1=BMT156483538.1,bus2=BMT169215942.1,Phases=1,LineCode=tieSwitch1,Length=0.001,Units=km,switch=T !numEQ 63942
new line.CTR53313 bus1=BMT101606479.1.2.3,bus2=BMT163307533.1.2.3,Phases=3,LineCode=tieSwitch,Length=0.001,Units=km,switch=T !numEQ 62718
new line.CTR53341 bus1=BMT101586795.1.2.3,bus2=BMT101587978.1.2.3,Phases=3,LineCode=tieSwitch,Length=0.001,Units=km,switch=T !numEQ 62469
new line.CTR53397 bus1=BMT101588223.1,bus2=BMT101588552.1,Phases=1,LineCode=tieSwitch1,Length=0.001,Units=km,switch=T !numEQ 63947
new line.CTR584340 bus1=BMT101589994.2,bus2=BMT159293031.2,Phases=1,LineCode=tieSwitch1,Length=0.001,Units=km,switch=T !numEQ 63252
new line.CTR621272 bus1=BMT165070473.2,bus2=BMT165070957.2,Phases=1,LineCode=tieSwitch1,Length=0.001,Units=km,switch=T !numEQ 134189
new line.CTR624086 bus1=BMT165070534.1.2.3,bus2=BMT165070557.1.2.3,Phases=3,LineCode=tieSwitch,Length=0.001,Units=km,switch=T !numEQ 285494
new line.CTR626802 bus1=BMT165070561.1.2.3,bus2=BMT169323495.1.2.3,Phases=3,LineCode=tieSwitch,Length=0.001,Units=km,switch=T !numEQ 64399
new line.CTR666758 bus1=BMT101600935.2,bus2=BMT162381532.2,Phases=1,LineCode=tieSwitch1,Length=0.001,Units=km,switch=T !numEQ 64081
new line.CTR669894 bus1=BMT101581524.1,bus2=BMT101590981.1,Phases=1,LineCode=tieSwitch1,Length=0.001,Units=km,switch=T !numEQ 62021
new line.CTR670062 bus1=BMT101603112.1,bus2=BMT101604288.1,Phases=1,LineCode=tieSwitch1,Length=0.001,Units=km,switch=T !numEQ 64487
new line.CTR71401 bus1=BMT101597820.1.2.3,bus2=BMT159217901.1.2.3,Phases=3,LineCode=tieSwitch,Length=0.001,Units=km,switch=T !numEQ 63014
new line.CTR328000 bus1=BMT101592892.1.2.3,bus2=BMT170422327.1.2.3,Phases=3,LineCode=tieSwitch,Length=0.001,Units=km,switch=T !numEQ 218711
new line.CTR328014 bus1=BMT165071067.3,bus2=BMT165071071.3,Phases=1,LineCode=tieSwitch1,Length=0.001,Units=km,switch=T !numEQ 64890
new line.CTR328021 bus1=BMT101597792.1.2.3,bus2=BMT157765703.1.2.3,Phases=3,LineCode=tieSwitch,Length=0.001,Units=km,switch=T !numEQ 62779
new line.CTR328091 bus1=BMT101606367.1.2.3,bus2=BMT101606878.1.2.3,Phases=3,LineCode=tieSwitch,Length=0.001,Units=km,switch=T !numEQ 63007
new line.CTR328105 bus1=BMT101607109.1,bus2=BMT169945217.1,Phases=1,LineCode=tieSwitch1,Length=0.001,Units=km,switch=T !numEQ 64083
new line.CTR328119 bus1=BMT101607144.1.2.3,bus2=BMT101608957.1.2.3,Phases=3,LineCode=tieSwitch,Length=0.001,Units=km,switch=T !numEQ 64902
new line.CTR328161 bus1=BMT163388112.1.2.3,bus2=BMT163388248.1.2.3,Phases=3,LineCode=tieSwitch,Length=0.001,Units=km,switch=T !numEQ 373315
new line.CTR328189 bus1=BMT101606913.1.2.3,bus2=BMT170869615.1.2.3,Phases=3,LineCode=tieSwitch,Length=0.001,Units=km,switch=T !numEQ 12784
new line.CTR328203 bus1=BMT166088569.1.2.3,bus2=BMT101606346.1.2.3,Phases=3,LineCode=tieSwitch,Length=0.001,Units=km,switch=T !numEQ 12758
new line.CTR328217 bus1=BMT101606850.1.2.3,bus2=BMT101606864.1.2.3,Phases=3,LineCode=tieSwitch,Length=0.001,Units=km,switch=T !numEQ 64395
new line.CTR328231 bus1=BMT163222780.1.2.3,bus2=BMT101606451.1.2.3,Phases=3,LineCode=tieSwitch,Length=0.001,Units=km,switch=T !numEQ 63008
new line.CTR328245 bus1=BMT101606556.1.2.3,bus2=BMT101606563.1.2.3,Phases=3,LineCode=tieSwitch,Length=0.001,Units=km,switch=T !numEQ 62939
new line.CTR328259 bus1=BMT101606647.1.2.3,bus2=BMT171839909.1.2.3,Phases=3,LineCode=tieSwitch,Length=0.001,Units=km,switch=T !numEQ 64097
new line.CTR353718 bus1=BMT101598275.1.2.3,bus2=BMT167767482.1.2.3,Phases=3,LineCode=tieSwitch,Length=0.001,Units=km,switch=T !numEQ 101127
new line.CTR354299 bus1=BMT101600123.3,bus2=BMT101600200.3,Phases=1,LineCode=tieSwitch1,Length=0.001,Units=km,switch=T !numEQ 139935
new line.CTR356532 bus1=BMT101605002.1,bus2=BMT101605324.1,Phases=1,LineCode=tieSwitch1,Length=0.001,Units=km,switch=T !numEQ 108121
new line.CTR40951 bus1=BMT162850546.2,bus2=BMT152829942.2,Phases=1,LineCode=tieSwitch1,Length=0.001,Units=km,switch=T !numEQ 64441
new line.CTR428877 bus1=BMT101596672.1.2.3,bus2=BMT153529227.1.2.3,Phases=3,LineCode=tieSwitch,Length=0.001,Units=km,switch=T !numEQ 194722
new line.CTR508306 bus1=BMT101607739.2,bus2=BMT163339549.2,Phases=1,LineCode=tieSwitch1,Length=0.001,Units=km,switch=T !numEQ 195281
new line.CTR548920 bus1=BMT101611463.1.2.3,bus2=BMT101611484.1.2.3,Phases=3,LineCode=tieSwitch,Length=0.001,Units=km,switch=T !numEQ 204044
new line.CTR549865 bus1=BMT101602062.2,bus2=BMT101602076.2,Phases=1,LineCode=tieSwitch1,Length=0.001,Units=km,switch=T !numEQ 64021
new line.CTR553939 bus1=BMT101608761.2,bus2=BMT149874326.2,Phases=1,LineCode=tieSwitch1,Length=0.001,Units=km,switch=T !numEQ 99467
new line.CTR600223 bus1=BMT101599612.3,bus2=BMT101599633.3,Phases=1,LineCode=tieSwitch1,Length=0.001,Units=km,switch=T !numEQ 55048
new line.CTR638856 bus1=BMT101599689.3,bus2=BMT109306339.3,Phases=1,LineCode=tieSwitch1,Length=0.001,Units=km,switch=T !numEQ 100105
new line.CTR640711 bus1=BMT101611533.1.2.3,bus2=BMT101611589.1.2.3,Phases=3,LineCode=tieSwitch,Length=0.001,Units=km,switch=T !numEQ 159916
new line.CTR680177 bus1=BMT101607410.1.2.3,bus2=BMT101607424.1.2.3,Phases=3,LineCode=tieSwitch,Length=0.001,Units=km,switch=T !numEQ 196251
new line.CTR71737 bus1=BMT101582343.2,bus2=BMT164982008.2,Phases=1,LineCode=tieSwitch1,Length=0.001,Units=km,switch=T !numEQ 128206
new line.CTR765801 bus1=BMT101596665.1.2.3,bus2=BMT101597526.1.2.3,Phases=3,LineCode=tieSwitch,Length=0.001,Units=km,switch=T !numEQ 225644
new line.CTR7686604 bus1=BMT2007687355.1.2.3,bus2=BMT2391496923.1.2.3,Phases=3,LineCode=tieSwitch,Length=0.001,Units=km,switch=T !numEQ 
new line.CTR7686616 bus1=BMT2391496897.1.2.3,bus2=BMT2007686617.1.2.3,Phases=3,LineCode=tieSwitch,Length=0.001,Units=km,switch=T !numEQ 
new line.CTR7686622 bus1=BMT2007687397.1.2.3,bus2=BMT2384732123.1.2.3,Phases=3,LineCode=tieSwitch,Length=0.001,Units=km,switch=T !numEQ 
new line.CTR7686628 bus1=BMT2384732135.1.2.3,bus2=BMT2007687439.1.2.3,Phases=3,LineCode=tieSwitch,Length=0.001,Units=km,switch=T !numEQ 
new line.CTR7686640 bus1=BMT2391496971.1.2.3,bus2=BMT2007687634.1.2.3,Phases=3,LineCode=tieSwitch,Length=0.001,Units=km,switch=T !numEQ 
new line.CTR7686646 bus1=BMT2384732159.1.2.3,bus2=BMT2007687669.1.2.3,Phases=3,LineCode=tieSwitch,Length=0.001,Units=km,switch=T !numEQ 
new line.CTR7686676 bus1=BMT2007686617.1.2.3,bus2=BMT2389067064.1.2.3,Phases=3,LineCode=tieSwitch,Length=0.001,Units=km,switch=T !numEQ 
new line.CTR7686684 bus1=BMT2389067064.1.2.3,bus2=BMT2007687334.1.2.3,Phases=3,LineCode=tieSwitch,Length=0.001,Units=km,switch=T !numEQ 
new line.CTR7686695 bus1=BMT2007687334.1.2.3,bus2=BMT2389067063.1.2.3,Phases=3,LineCode=tieSwitch,Length=0.001,Units=km,switch=T !numEQ 
new line.CTR7686697 bus1=BMT2389067063.1.2.3,bus2=BMT2007687355.1.2.3,Phases=3,LineCode=tieSwitch,Length=0.001,Units=km,switch=T !numEQ 
new line.CTR7686753 bus1=BMT2389067062.1.2.3,bus2=BMT2007687397.1.2.3,Phases=3,LineCode=tieSwitch,Length=0.001,Units=km,switch=T !numEQ 
new line.CTR7686755 bus1=BMT2007687334.1.2.3,bus2=BMT2389067062.1.2.3,Phases=3,LineCode=tieSwitch,Length=0.001,Units=km,switch=T !numEQ 
new line.CTR7686777 bus1=BMT2389067061.1.2.3,bus2=BMT2007687467.1.2.3,Phases=3,LineCode=tieSwitch,Length=0.001,Units=km,switch=T !numEQ 
new line.CTR7686779 bus1=BMT2007687439.1.2.3,bus2=BMT2389067061.1.2.3,Phases=3,LineCode=tieSwitch,Length=0.001,Units=km,switch=T !numEQ 
new line.CTR7686859 bus1=BMT2007687634.1.2.3,bus2=BMT2389067066.1.2.3,Phases=3,LineCode=tieSwitch,Length=0.001,Units=km,switch=T !numEQ 
new line.CTR7686873 bus1=BMT2007687669.1.2.3,bus2=BMT2389067065.1.2.3,Phases=3,LineCode=tieSwitch,Length=0.001,Units=km,switch=T !numEQ 
new line.CTR7686905 bus1=BMT2389067066.1.2.3,bus2=BMT2007687655.1.2.3,Phases=3,LineCode=tieSwitch,Length=0.001,Units=km,switch=T !numEQ 
new line.CTR7686911 bus1=BMT2389067065.1.2.3,bus2=BMT2007687690.1.2.3,Phases=3,LineCode=tieSwitch,Length=0.001,Units=km,switch=T !numEQ 
new line.CTR815599 bus1=BMT127205528.3,bus2=BMT127205899.3,Phases=1,LineCode=tieSwitch1,Length=0.001,Units=km,switch=T !numEQ 291452
new line.CTR816264 bus1=BMT127505646.3,bus2=BMT127505744.3,Phases=1,LineCode=tieSwitch1,Length=0.001,Units=km,switch=T !numEQ 310665
new line.CTR849294 bus1=BMT149680296.1,bus2=BMT167659605.1,Phases=1,LineCode=tieSwitch1,Length=0.001,Units=km,switch=T !numEQ 285527
new line.CTR849753 bus1=BMT149797975.1,bus2=BMT161677557.1,Phases=1,LineCode=tieSwitch1,Length=0.001,Units=km,switch=T !numEQ 379535
new line.CTR849804 bus1=BMT149812398.2,bus2=BMT171465366.2,Phases=1,LineCode=tieSwitch1,Length=0.001,Units=km,switch=T !numEQ 309800
new line.CTR850039 bus1=BMT154009045.1.2.3,bus2=BMT160363217.1.2.3,Phases=3,LineCode=tieSwitch,Length=0.001,Units=km,switch=T !numEQ 374138
new line.CTR850104 bus1=BMT149871541.2,bus2=BMT149872358.2,Phases=1,LineCode=tieSwitch1,Length=0.001,Units=km,switch=T !numEQ 373325
new line.CTR850307 bus1=BMT151016183.1.2.3,bus2=BMT169251685.1.2.3,Phases=3,LineCode=tieSwitch,Length=0.001,Units=km,switch=T !numEQ 301968
new line.CTR850308 bus1=BMT151016554.1.2.3,bus2=BMT151018218.1.2.3,Phases=3,LineCode=tieSwitch,Length=0.001,Units=km,switch=T !numEQ 301969
new line.CTR328301 bus1=BMT101598646.1.2.3,bus2=BMT156906659.1.2.3,Phases=3,LineCode=tieSwitch,Length=0.001,Units=km,switch=T !numEQ 12769
new line.CTR328371 bus1=BMT101590001.2,bus2=BMT101590400.2,Phases=1,LineCode=tieSwitch1,Length=0.001,Units=km,switch=T !numEQ 63251
new line.CTR328385 bus1=BMT101590190.2,bus2=BMT136953007.2,Phases=1,LineCode=tieSwitch1,Length=0.001,Units=km,switch=T !numEQ 63229
new line.CTR328399 bus1=BMT101590449.2,bus2=BMT159504341.2,Phases=1,LineCode=tieSwitch1,Length=0.001,Units=km,switch=T !numEQ 99497
new line.CTR328413 bus1=BMT101600452.2,bus2=BMT101600557.2,Phases=1,LineCode=tieSwitch1,Length=0.001,Units=km,switch=T !numEQ 130855
new line.CTR328427 bus1=BMT101601586.3,bus2=BMT156260603.3,Phases=1,LineCode=tieSwitch1,Length=0.001,Units=km,switch=T !numEQ 12763
new line.CTR328441 bus1=BMT101601579.1,bus2=BMT101601705.1,Phases=1,LineCode=tieSwitch1,Length=0.001,Units=km,switch=T !numEQ 12764
new line.CTR328469 bus1=BMT101602923.1,bus2=BMT101604757.1,Phases=1,LineCode=tieSwitch1,Length=0.001,Units=km,switch=T !numEQ 64489
new line.CTR328483 bus1=BMT151612254.1.2.3,bus2=BMT170864104.1.2.3,Phases=3,LineCode=tieSwitch,Length=0.001,Units=km,switch=T !numEQ 64488
new line.CTR328497 bus1=BMT101603189.1.2.3,bus2=BMT101603707.1.2.3,Phases=3,LineCode=tieSwitch,Length=0.001,Units=km,switch=T !numEQ 63571
new line.CTR328525 bus1=BMT101604722.3,bus2=BMT101604736.3,Phases=1,LineCode=tieSwitch1,Length=0.001,Units=km,switch=T !numEQ 63472
new line.CTR328539 bus1=BMT101604344.2,bus2=BMT157549104.2,Phases=1,LineCode=tieSwitch1,Length=0.001,Units=km,switch=T !numEQ 64500
new line.CTR328553 bus1=BMT101604470.2,bus2=BMT113788579.2,Phases=1,LineCode=tieSwitch1,Length=0.001,Units=km,switch=T !numEQ 64523
new line.CTR328567 bus1=BMT101604393.2,bus2=BMT101604407.2,Phases=1,LineCode=tieSwitch1,Length=0.001,Units=km,switch=T !numEQ 64499
new line.CTR328581 bus1=BMT162115560.1.2.3,bus2=BMT163339136.1.2.3,Phases=3,LineCode=tieSwitch,Length=0.001,Units=km,switch=T !numEQ 63357
new line.CTR331724 bus1=BMT101588153.1,bus2=BMT101588601.1,Phases=1,LineCode=tieSwitch1,Length=0.001,Units=km,switch=T !numEQ 63946
new line.CTR357694 bus1=BMT101598422.2,bus2=BMT153395419.2,Phases=1,LineCode=tieSwitch1,Length=0.001,Units=km,switch=T !numEQ 64842
new line.CTR3578 bus1=BMT101581986.3,bus2=BMT101582203.3,Phases=1,LineCode=tieSwitch1,Length=0.001,Units=km,switch=T !numEQ 204018
new line.CTR358429 bus1=BMT165070771.3,bus2=BMT165070772.3,Phases=1,LineCode=tieSwitch1,Length=0.001,Units=km,switch=T !numEQ 257071
new line.CTR358457 bus1=BMT165070776.3,bus2=BMT165070818.3,Phases=1,LineCode=tieSwitch1,Length=0.001,Units=km,switch=T !numEQ 101130
new line.CTR3585 bus1=BMT101582021.2,bus2=BMT160403702.2,Phases=1,LineCode=tieSwitch1,Length=0.001,Units=km,switch=T !numEQ 204020
new line.CTR3592 bus1=BMT163725549.1,bus2=BMT163725554.1,Phases=1,LineCode=tieSwitch1,Length=0.001,Units=km,switch=T !numEQ 204019
new line.CTR45116 bus1=BMT101611491.1.2.3,bus2=BMT101611498.1.2.3,Phases=3,LineCode=tieSwitch,Length=0.001,Units=km,switch=T !numEQ 161366
new line.CTR485871 bus1=BMT101596770.1.2.3,bus2=BMT165218436.1.2.3,Phases=3,LineCode=tieSwitch,Length=0.001,Units=km,switch=T !numEQ 194732
new line.CTR53747 bus1=BMT101582574.1.2.3,bus2=BMT101582847.1.2.3,Phases=3,LineCode=tieSwitch,Length=0.001,Units=km,switch=T !numEQ 63869
new line.CTR53775 bus1=BMT101583225.1.3,bus2=BMT156131816.1.3,Phases=2,LineCode=tieSwitch,Length=0.001,Units=km,switch=T !numEQ 62589
new line.CTR53831 bus1=BMT101583232.1.2.3,bus2=BMT101583253.1.2.3,Phases=3,LineCode=tieSwitch,Length=0.001,Units=km,switch=T !numEQ 63922
new line.CTR53971 bus1=BMT101581531.3,bus2=BMT101590925.3,Phases=1,LineCode=tieSwitch1,Length=0.001,Units=km,switch=T !numEQ 255197
new line.CTR53999 bus1=BMT101581489.1,bus2=BMT101591009.1,Phases=1,LineCode=tieSwitch1,Length=0.001,Units=km,switch=T !numEQ 63786
new line.CTR57457 bus1=BMT101602678.2,bus2=BMT168448423.2,Phases=1,LineCode=tieSwitch1,Length=0.001,Units=km,switch=T !numEQ 225846
new line.CTR574792 bus1=BMT101607165.1,bus2=BMT101608887.1,Phases=1,LineCode=tieSwitch1,Length=0.001,Units=km,switch=T !numEQ 64905
new line.CTR574890 bus1=BMT101598723.1.2.3,bus2=BMT164066293.1.2.3,Phases=3,LineCode=tieSwitch,Length=0.001,Units=km,switch=T !numEQ 125233
new line.CTR578544 bus1=BMT101583701.1,bus2=BMT101583911.1,Phases=1,LineCode=tieSwitch1,Length=0.001,Units=km,switch=T !numEQ 382475
new line.CTR657700 bus1=BMT156036776.1.2.3,bus2=BMT156036780.1.2.3,Phases=3,LineCode=tieSwitch,Length=0.001,Units=km,switch=T !numEQ 64444
new line.CTR659604 bus1=BMT161872049.1.2.3,bus2=BMT161872001.1.2.3,Phases=3,LineCode=tieSwitch,Length=0.001,Units=km,switch=T !numEQ 382432
new line.CTR660458 bus1=BMT101610854.3,bus2=BMT101610875.3,Phases=1,LineCode=tieSwitch1,Length=0.001,Units=km,switch=T !numEQ 121996
new line.CTR743051 bus1=BMT101586711.1.2.3,bus2=BMT150634225.1.2.3,Phases=3,LineCode=tieSwitch,Length=0.001,Units=km,switch=T !numEQ 225997
new line.CTR746474 bus1=BMT101608712.2,bus2=BMT149874316.2,Phases=1,LineCode=tieSwitch1,Length=0.001,Units=km,switch=T !numEQ 230136
new line.CTR748168 bus1=BMT101609020.1.2.3,bus2=BMT160644217.1.2.3,Phases=3,LineCode=tieSwitch,Length=0.001,Units=km,switch=T !numEQ 208326
new line.CTR748189 bus1=BMT168092990.1.2.3,bus2=BMT168092991.1.2.3,Phases=3,LineCode=tieSwitch,Length=0.001,Units=km,switch=T !numEQ 208327
new line.CTR794256 bus1=BMT165070585.2,bus2=BMT165070610.2,Phases=1,LineCode=tieSwitch1,Length=0.001,Units=km,switch=T !numEQ 286091
new line.CTR794263 bus1=BMT165070587.3,bus2=BMT165070605.3,Phases=1,LineCode=tieSwitch1,Length=0.001,Units=km,switch=T !numEQ 286092
new line.CTR794270 bus1=BMT165070590.3,bus2=BMT165070607.3,Phases=1,LineCode=tieSwitch1,Length=0.001,Units=km,switch=T !numEQ 286093
new line.CTR7967 bus1=BMT165070669.1.2.3,bus2=BMT165070670.1.2.3,Phases=3,LineCode=tieSwitch,Length=0.001,Units=km,switch=T !numEQ 199993
...