2024_89_CemigReconfigurationCases/1_SEsCemig/MAL08/MAL08Transformadores.dss
new transformer.1056288 Phases=1,Windings=3,Buses=[BMT156131847.1 BBT9355922.1.0 BBT9355922.0.2],Conns=[wye wye wye],kvs=[7.967 0.12 0.12],kvas=[35.000000000 35.000000000 35.000000000],Taps=[1,1.000000000,1.000000000],%loadloss=1.293000000,%noloadloss=0.342857000
new transformer.1057541 Phases=3,Windings=2,Buses=[BMT148810525.1.2.3 BBT9944678.1.2.3.0],Conns=[delta wye],kvs=[13.8 0.22],kvas=[45.000000000 45.000000000],Taps=[1,1.000000000],%loadloss=1.522000000,%noloadloss=0.377777000
new transformer.1072430 Phases=1,Windings=3,Buses=[BMT159918400.2 BBT15976109.1.0 BBT15976109.0.2],Conns=[wye wye wye],kvs=[7.967 0.12 0.12],kvas=[15.000000000 15.000000000 15.000000000],Taps=[1,1.000000000,1.000000000],%loadloss=1.600000000,%noloadloss=0.400000000
new transformer.1119092 Phases=1,Windings=3,Buses=[BMT166930379.1 BBT27049066.1.0 BBT27049066.0.2],Conns=[wye wye wye],kvs=[7.967 0.12 0.12],kvas=[5.000000000 5.000000000 5.000000000],Taps=[1,1.000000000,1.000000000],%loadloss=1.900000000,%noloadloss=0.600000000
new transformer.118560 Phases=3,Windings=2,Buses=[BMT160581880.1.2.3 BBT1097335.1.2.3.0],Conns=[delta wye],kvs=[13.8 0.22],kvas=[30.000000000 30.000000000],Taps=[1,1.000000000],%loadloss=1.667000000,%noloadloss=0.433333000
new transformer.118574 Phases=3,Windings=2,Buses=[BMT101583050.1.2.3 BBT1097482.1.2.3.0],Conns=[delta wye],kvs=[13.8 0.22],kvas=[75.000000000 75.000000000],Taps=[1,1.000000000],%loadloss=1.340000000,%noloadloss=0.340000000
new transformer.118602 Phases=3,Windings=2,Buses=[BMT101583029.1.2.3 BBT1097538.1.2.3.0],Conns=[delta wye],kvs=[13.8 0.22],kvas=[45.000000000 45.000000000],Taps=[1,1.000000000],%loadloss=1.522000000,%noloadloss=0.377777000
new transformer.118616 Phases=3,Windings=2,Buses=[BMT165940940.1.2.3 BBT1097720.1.2.3.0],Conns=[delta wye],kvs=[13.8 0.22],kvas=[30.000000000 30.000000000],Taps=[1,1.000000000],%loadloss=1.667000000,%noloadloss=0.433333000
new transformer.118665 Phases=1,Windings=3,Buses=[BMT101582644.2 BBT1098126.1.0 BBT1098126.0.2],Conns=[wye wye wye],kvs=[7.967 0.12 0.12],kvas=[10.000000000 10.000000000 10.000000000],Taps=[1,1.000000000,1.000000000],%loadloss=1.800000000,%noloadloss=0.450000000
new transformer.118679 Phases=1,Windings=3,Buses=[BMT101582840.2 BBT1098154.1.0 BBT1098154.0.2],Conns=[wye wye wye],kvs=[7.967 0.12 0.12],kvas=[10.000000000 10.000000000 10.000000000],Taps=[1,1.000000000,1.000000000],%loadloss=1.800000000,%noloadloss=0.450000000
new transformer.118693 Phases=1,Windings=3,Buses=[BMT101582833.2 BBT1098182.1.0 BBT1098182.0.2],Conns=[wye wye wye],kvs=[7.967 0.12 0.12],kvas=[10.000000000 10.000000000 10.000000000],Taps=[1,1.000000000,1.000000000],%loadloss=1.800000000,%noloadloss=0.450000000
new transformer.118707 Phases=3,Windings=2,Buses=[BMT160581889.1.2.3 BBT1098203.1.2.3.0],Conns=[delta wye],kvs=[13.8 0.22],kvas=[30.000000000 30.000000000],Taps=[1,1.000000000],%loadloss=1.667000000,%noloadloss=0.433333000
new transformer.118721 Phases=3,Windings=2,Buses=[BMT160581890.1.2.3 BBT1098343.1.2.3.0],Conns=[delta wye],kvs=[13.8 0.22],kvas=[45.000000000 45.000000000],Taps=[1,1.000000000],%loadloss=1.522000000,%noloadloss=0.377777000
new transformer.118735 Phases=1,Windings=3,Buses=[BMT101582784.2 BBT1098483.1.0 BBT1098483.0.2],Conns=[wye wye wye],kvs=[7.967 0.12 0.12],kvas=[15.000000000 15.000000000 15.000000000],Taps=[1,1.000000000,1.000000000],%loadloss=1.600000000,%noloadloss=0.400000000
new transformer.118749 Phases=1,Windings=3,Buses=[BMT101582798.2 BBT1098511.1.0 BBT1098511.0.2],Conns=[wye wye wye],kvs=[7.967 0.12 0.12],kvas=[5.000000000 5.000000000 5.000000000],Taps=[1,1.000000000,1.000000000],%loadloss=1.900000000,%noloadloss=0.600000000
new transformer.118763 Phases=1,Windings=3,Buses=[BMT101582812.2 BBT1098539.1.0 BBT1098539.0.2],Conns=[wye wye wye],kvs=[7.967 0.12 0.12],kvas=[10.000000000 10.000000000 10.000000000],Taps=[1,1.000000000,1.000000000],%loadloss=1.800000000,%noloadloss=0.450000000
new transformer.118777 Phases=3,Windings=2,Buses=[BMT165940946.1.2.3 BBT1098567.1.2.3.0],Conns=[delta wye],kvs=[13.8 0.22],kvas=[45.000000000 45.000000000],Taps=[1,1.000000000],%loadloss=1.522000000,%noloadloss=0.377777000
new transformer.118791 Phases=3,Windings=2,Buses=[BMT165940947.1.2.3 BBT1098672.1.2.3.0],Conns=[delta wye],kvs=[13.8 0.22],kvas=[30.000000000 30.000000000],Taps=[1,1.000000000],%loadloss=1.667000000,%noloadloss=0.433333000
new transformer.118805 Phases=3,Windings=2,Buses=[BMT160581882.1.2.3 BBT1098777.1.2.3.0],Conns=[delta wye],kvs=[13.8 0.22],kvas=[30.000000000 30.000000000],Taps=[1,1.000000000],%loadloss=1.667000000,%noloadloss=0.433333000
new transformer.118819 Phases=3,Windings=2,Buses=[BMT160581886.1.2.3 BBT1098910.1.2.3.0],Conns=[delta wye],kvs=[13.8 0.22],kvas=[45.000000000 45.000000000],Taps=[1,1.000000000],%loadloss=1.522000000,%noloadloss=0.377777000
...